
Spectre (R) Circuit Simulator
Version 23.1.0.305.isr3 64bit -- 13 Nov 2023
Copyright (C) 1989-2023 Cadence Design Systems, Inc. All rights reserved worldwide. Cadence and Spectre are registered trademarks of Cadence Design Systems, Inc. All others are the property of their respective holders.

Includes RSA BSAFE(R) Cryptographic or Security Protocol Software from RSA Security, Inc.

User: saul   Host: phoenix   HostID: A0F02   PID: 30891
Memory  available: 13.5623 GB  physical: 16.6560 GB
Linux   : CentOS Linux release 7 (Core)
CPU Type: 11th Gen Intel(R) Core(TM) i7-11700K @ 3.60GHz
All processors running at 3600.0 MHz
        Socket: Processors
        0:       0,  1,  2,  3,  4,  5
        
System load averages (1min, 5min, 15min) : 0.5 %, 1.2 %, 0.8 %
HPC is enabled


Simulating `input.scs' on phoenix at 7:28:25 AM, Sat Feb 17, 2024 (process id: 30891).
Current working directory: /home/saul/projects/XH018_mixed_ji3/test_mix/virtuoso/Sim/CHARACTERIZATION/FT_3/adexl/results/data/Interactive.1/1/CHARACTERIZATION:FT_3:1/netlist
Command line:
    /pkg/cadence/installs/SPECTRE231/tools/bin/spectre -64 input.scs  \
        +escchars +log ../psf/spectre.out -format psfxl -raw ../psf  \
        +aps +mt +lqtimeout 900 -maxw 5 -maxn 5 -env ade -ahdllibdir  \
        /home/saul/projects/XH018_mixed_ji3/test_mix/virtuoso/Sim/CHARACTERIZATION/FT_3/adexl/results/data/Interactive.1/sharedData/Job4/ahdl/input.ahdlSimDB  \
        +logstatus

Licensing Information:
[07:28:25.512449] Configured Lic search path (22.01-s002): 3000@lic08.ug.kth.se

Licensing Information:
[07:28:25.156946] Periodic Lic check successful

Loading /pkg/cadence/installs/SPECTRE231/tools.lnx86/cmi/lib/64bit/5.0/libinfineon_sh.so ...
Loading /pkg/cadence/installs/SPECTRE231/tools.lnx86/cmi/lib/64bit/5.0/libphilips_I_sh.so ...
Loading /pkg/cadence/installs/SPECTRE231/tools.lnx86/cmi/lib/64bit/5.0/libphilips_sh.so ...
Loading /pkg/cadence/installs/SPECTRE231/tools.lnx86/cmi/lib/64bit/5.0/libsparam_sh.so ...
Loading /pkg/cadence/installs/SPECTRE231/tools.lnx86/cmi/lib/64bit/5.0/libstmodels_sh.so ...
Reading file:  /home/saul/projects/XH018_mixed_ji3/test_mix/virtuoso/Sim/CHARACTERIZATION/FT_3/adexl/results/data/Interactive.1/1/CHARACTERIZATION:FT_3:1/netlist/input.scs
Reading link:  /pkg/cadence
Reading file:  /home/saul/cadence/installs/SPECTRE231/tools.lnx86/spectre/etc/configs/spectre.cfg
Reading file:  /home/saul/pkg/xfab/XKIT/xh018/cadence/v9_0/spectre/v9_0_2/lpmos/config.scs
Reading file:  /home/saul/pkg/xfab/XKIT/xh018/cadence/v9_0/spectre/v9_0_2/lpmos/param.scs
Reading file:  /home/saul/pkg/xfab/XKIT/xh018/cadence/v9_0/spectre/v9_0_2/lpmos/bip.scs
Reading file:  /home/saul/pkg/xfab/XKIT/xh018/cadence/v9_0/spectre/v9_0_2/lpmos/models/bip/tm_bip.scs
Reading file:  /home/saul/pkg/xfab/XKIT/xh018/cadence/v9_0/spectre/v9_0_2/lpmos/models/bip/qpva.scs
Reading file:  /home/saul/pkg/xfab/XKIT/xh018/cadence/v9_0/spectre/v9_0_2/lpmos/models/bip/qpvb.scs
Reading file:  /home/saul/pkg/xfab/XKIT/xh018/cadence/v9_0/spectre/v9_0_2/lpmos/models/bip/qpvc.scs
Reading file:  /home/saul/pkg/xfab/XKIT/xh018/cadence/v9_0/spectre/v9_0_2/lpmos/models/bip/qpva3.scs
Reading file:  /home/saul/pkg/xfab/XKIT/xh018/cadence/v9_0/spectre/v9_0_2/lpmos/models/bip/qpvb3.scs
Reading file:  /home/saul/pkg/xfab/XKIT/xh018/cadence/v9_0/spectre/v9_0_2/lpmos/models/bip/qpvc3.scs
Reading file:  /home/saul/pkg/xfab/XKIT/xh018/cadence/v9_0/spectre/v9_0_2/lpmos/models/bip/qnva.scs
Reading file:  /home/saul/pkg/xfab/XKIT/xh018/cadence/v9_0/spectre/v9_0_2/lpmos/models/bip/qnvb.scs
Reading file:  /home/saul/pkg/xfab/XKIT/xh018/cadence/v9_0/spectre/v9_0_2/lpmos/models/bip/qnvb_npn.scs
Reading file:  /home/saul/pkg/xfab/XKIT/xh018/cadence/v9_0/spectre/v9_0_2/lpmos/models/bip/qnvb_pnp.scs
Reading file:  /home/saul/pkg/xfab/XKIT/xh018/cadence/v9_0/spectre/v9_0_2/lpmos/models/bip/qnvc.scs
Reading file:  /home/saul/pkg/xfab/XKIT/xh018/cadence/v9_0/spectre/v9_0_2/lpmos/models/bip/qnvc_npn.scs
Reading file:  /home/saul/pkg/xfab/XKIT/xh018/cadence/v9_0/spectre/v9_0_2/lpmos/models/bip/qnvc_pnp.scs
Reading file:  /home/saul/pkg/xfab/XKIT/xh018/cadence/v9_0/spectre/v9_0_2/lpmos/models/bip/qpvhscr.scs
Reading file:  /home/saul/pkg/xfab/XKIT/xh018/cadence/v9_0/spectre/v9_0_2/lpmos/models/bip/qpvascr.scs
Reading file:  /home/saul/pkg/xfab/XKIT/xh018/cadence/v9_0/spectre/v9_0_2/lpmos/models/bip/qpvhbscr.scs
Reading file:  /home/saul/pkg/xfab/XKIT/xh018/cadence/v9_0/spectre/v9_0_2/lpmos/models/bip/qnvba.scs
Reading file:  /home/saul/pkg/xfab/XKIT/xh018/cadence/v9_0/spectre/v9_0_2/lpmos/models/bip/qnvba_npn.scs
Reading file:  /home/saul/pkg/xfab/XKIT/xh018/cadence/v9_0/spectre/v9_0_2/lpmos/models/bip/qnvba_pnp.scs
Reading file:  /home/saul/pkg/xfab/XKIT/xh018/cadence/v9_0/spectre/v9_0_2/lpmos/models/bip/qnvca.scs
Reading file:  /home/saul/pkg/xfab/XKIT/xh018/cadence/v9_0/spectre/v9_0_2/lpmos/models/bip/qnvca_npn.scs
Reading file:  /home/saul/pkg/xfab/XKIT/xh018/cadence/v9_0/spectre/v9_0_2/lpmos/models/bip/qnvca_pnp.scs
Reading file:  /home/saul/pkg/xfab/XKIT/xh018/cadence/v9_0/spectre/v9_0_2/lpmos/models/bip/qpv_pa.scs
Reading file:  /home/saul/pkg/xfab/XKIT/xh018/cadence/v9_0/spectre/v9_0_2/lpmos/models/bip/qpv_pb.scs
Reading file:  /home/saul/pkg/xfab/XKIT/xh018/cadence/v9_0/spectre/v9_0_2/lpmos/models/bip/qpv_pc.scs
Reading file:  /home/saul/pkg/xfab/XKIT/xh018/cadence/v9_0/spectre/v9_0_2/lpmos/models/bip/qpv_pd.scs
Reading file:  /home/saul/pkg/xfab/XKIT/xh018/cadence/v9_0/spectre/v9_0_2/lpmos/models/bip/qpv_pe.scs
Reading file:  /home/saul/pkg/xfab/XKIT/xh018/cadence/v9_0/spectre/v9_0_2/lpmos/models/bip/qpv_pf.scs
Reading file:  /home/saul/pkg/xfab/XKIT/xh018/cadence/v9_0/spectre/v9_0_2/lpmos/models/bip/qpl_pa.scs
Reading file:  /home/saul/pkg/xfab/XKIT/xh018/cadence/v9_0/spectre/v9_0_2/lpmos/models/bip/qpl_pb.scs
Reading file:  /home/saul/pkg/xfab/XKIT/xh018/cadence/v9_0/spectre/v9_0_2/lpmos/models/bip/qpl_pc.scs
Reading file:  /home/saul/pkg/xfab/XKIT/xh018/cadence/v9_0/spectre/v9_0_2/lpmos/models/bip/qpl_pd.scs
Reading file:  /home/saul/pkg/xfab/XKIT/xh018/cadence/v9_0/spectre/v9_0_2/lpmos/models/bip/qpl_pe.scs
Reading file:  /home/saul/pkg/xfab/XKIT/xh018/cadence/v9_0/spectre/v9_0_2/lpmos/models/bip/qpl_pf.scs
Reading file:  /home/saul/pkg/xfab/XKIT/xh018/cadence/v9_0/spectre/v9_0_2/lpmos/models/bip/qnl_pa.scs
Reading file:  /home/saul/pkg/xfab/XKIT/xh018/cadence/v9_0/spectre/v9_0_2/lpmos/models/bip/qnl_pb.scs
Reading file:  /home/saul/pkg/xfab/XKIT/xh018/cadence/v9_0/spectre/v9_0_2/lpmos/models/bip/qnl_pc.scs
Reading file:  /home/saul/pkg/xfab/XKIT/xh018/cadence/v9_0/spectre/v9_0_2/lpmos/models/bip/qnl_pd.scs
Reading file:  /home/saul/pkg/xfab/XKIT/xh018/cadence/v9_0/spectre/v9_0_2/lpmos/models/bip/qnl_pe.scs
Reading file:  /home/saul/pkg/xfab/XKIT/xh018/cadence/v9_0/spectre/v9_0_2/lpmos/models/bip/qnl_pf.scs
Reading file:  /home/saul/pkg/xfab/XKIT/xh018/cadence/v9_0/spectre/v9_0_2/lpmos/cap.scs
Reading file:  /home/saul/pkg/xfab/XKIT/xh018/cadence/v9_0/spectre/v9_0_2/lpmos/models/cap/tm_cap.scs
Reading file:  /home/saul/pkg/xfab/XKIT/xh018/cadence/v9_0/spectre/v9_0_2/lpmos/models/cap/csandwt3.scs
Reading file:  /home/saul/pkg/xfab/XKIT/xh018/cadence/v9_0/spectre/v9_0_2/lpmos/models/cap/csandwt4.scs
Reading file:  /home/saul/pkg/xfab/XKIT/xh018/cadence/v9_0/spectre/v9_0_2/lpmos/models/cap/csandwt5.scs
Reading file:  /home/saul/pkg/xfab/XKIT/xh018/cadence/v9_0/spectre/v9_0_2/lpmos/models/cap/csf2p.scs
Reading file:  /home/saul/pkg/xfab/XKIT/xh018/cadence/v9_0/spectre/v9_0_2/lpmos/models/cap/csf3p.scs
Reading file:  /home/saul/pkg/xfab/XKIT/xh018/cadence/v9_0/spectre/v9_0_2/lpmos/models/cap/csf3.scs
Reading file:  /home/saul/pkg/xfab/XKIT/xh018/cadence/v9_0/spectre/v9_0_2/lpmos/models/cap/csf4.scs
Reading file:  /home/saul/pkg/xfab/XKIT/xh018/cadence/v9_0/spectre/v9_0_2/lpmos/models/cap/csf5.scs
Reading file:  /home/saul/pkg/xfab/XKIT/xh018/cadence/v9_0/spectre/v9_0_2/lpmos/models/cap/csft4.scs
Reading file:  /home/saul/pkg/xfab/XKIT/xh018/cadence/v9_0/spectre/v9_0_2/lpmos/models/cap/csft5.scs
Reading file:  /home/saul/pkg/xfab/XKIT/xh018/cadence/v9_0/spectre/v9_0_2/lpmos/models/cap/csft6.scs
Reading file:  /home/saul/pkg/xfab/XKIT/xh018/cadence/v9_0/spectre/v9_0_2/lpmos/models/cap/csf3a.scs
Reading file:  /home/saul/pkg/xfab/XKIT/xh018/cadence/v9_0/spectre/v9_0_2/lpmos/models/cap/csf4a.scs
Reading file:  /home/saul/pkg/xfab/XKIT/xh018/cadence/v9_0/spectre/v9_0_2/lpmos/models/cap/csf5a.scs
Reading file:  /home/saul/pkg/xfab/XKIT/xh018/cadence/v9_0/spectre/v9_0_2/lpmos/models/cap/csft4a.scs
Reading file:  /home/saul/pkg/xfab/XKIT/xh018/cadence/v9_0/spectre/v9_0_2/lpmos/models/cap/csft5a.scs
Reading file:  /home/saul/pkg/xfab/XKIT/xh018/cadence/v9_0/spectre/v9_0_2/lpmos/models/cap/csft6a.scs
Reading file:  /home/saul/pkg/xfab/XKIT/xh018/cadence/v9_0/spectre/v9_0_2/lpmos/models/cap/cif3a.scs
Reading file:  /home/saul/pkg/xfab/XKIT/xh018/cadence/v9_0/spectre/v9_0_2/lpmos/models/cap/cif4a.scs
Reading file:  /home/saul/pkg/xfab/XKIT/xh018/cadence/v9_0/spectre/v9_0_2/lpmos/models/cap/cif5a.scs
Reading file:  /home/saul/pkg/xfab/XKIT/xh018/cadence/v9_0/spectre/v9_0_2/lpmos/models/cap/cift4a.scs
Reading file:  /home/saul/pkg/xfab/XKIT/xh018/cadence/v9_0/spectre/v9_0_2/lpmos/models/cap/cift5a.scs
Reading file:  /home/saul/pkg/xfab/XKIT/xh018/cadence/v9_0/spectre/v9_0_2/lpmos/models/cap/cift6a.scs
Reading file:  /home/saul/pkg/xfab/XKIT/xh018/cadence/v9_0/spectre/v9_0_2/lpmos/models/cap/cmm3.scs
Reading file:  /home/saul/pkg/xfab/XKIT/xh018/cadence/v9_0/spectre/v9_0_2/lpmos/models/cap/cmm4t.scs
Reading file:  /home/saul/pkg/xfab/XKIT/xh018/cadence/v9_0/spectre/v9_0_2/lpmos/models/cap/cmm4.scs
Reading file:  /home/saul/pkg/xfab/XKIT/xh018/cadence/v9_0/spectre/v9_0_2/lpmos/models/cap/cmm5t.scs
Reading file:  /home/saul/pkg/xfab/XKIT/xh018/cadence/v9_0/spectre/v9_0_2/lpmos/models/cap/cmm6t.scs
Reading file:  /home/saul/pkg/xfab/XKIT/xh018/cadence/v9_0/spectre/v9_0_2/lpmos/models/cap/cdmm4.scs
Reading file:  /home/saul/pkg/xfab/XKIT/xh018/cadence/v9_0/spectre/v9_0_2/lpmos/models/cap/cdmm4t.scs
Reading file:  /home/saul/pkg/xfab/XKIT/xh018/cadence/v9_0/spectre/v9_0_2/lpmos/models/cap/ctmm5.scs
Reading file:  /home/saul/pkg/xfab/XKIT/xh018/cadence/v9_0/spectre/v9_0_2/lpmos/models/cap/ctmm5t.scs
Reading file:  /home/saul/pkg/xfab/XKIT/xh018/cadence/v9_0/spectre/v9_0_2/lpmos/models/cap/cmmh3.scs
Reading file:  /home/saul/pkg/xfab/XKIT/xh018/cadence/v9_0/spectre/v9_0_2/lpmos/models/cap/cmmh4t.scs
Reading file:  /home/saul/pkg/xfab/XKIT/xh018/cadence/v9_0/spectre/v9_0_2/lpmos/models/cap/cmmh4.scs
Reading file:  /home/saul/pkg/xfab/XKIT/xh018/cadence/v9_0/spectre/v9_0_2/lpmos/models/cap/cmmh5t.scs
Reading file:  /home/saul/pkg/xfab/XKIT/xh018/cadence/v9_0/spectre/v9_0_2/lpmos/models/cap/cmmh6t.scs
Reading file:  /home/saul/pkg/xfab/XKIT/xh018/cadence/v9_0/spectre/v9_0_2/lpmos/models/cap/cdmmh4.scs
Reading file:  /home/saul/pkg/xfab/XKIT/xh018/cadence/v9_0/spectre/v9_0_2/lpmos/models/cap/cdmmh4t.scs
Reading file:  /home/saul/pkg/xfab/XKIT/xh018/cadence/v9_0/spectre/v9_0_2/lpmos/models/cap/ctmmh5.scs
Reading file:  /home/saul/pkg/xfab/XKIT/xh018/cadence/v9_0/spectre/v9_0_2/lpmos/models/cap/ctmmh5t.scs
Reading file:  /home/saul/pkg/xfab/XKIT/xh018/cadence/v9_0/spectre/v9_0_2/lpmos/models/cap/mosvc.scs
Reading file:  /home/saul/pkg/xfab/XKIT/xh018/cadence/v9_0/spectre/v9_0_2/lpmos/models/cap/mosvc_pmos.scs
Reading file:  /home/saul/pkg/xfab/XKIT/xh018/cadence/v9_0/spectre/v9_0_2/lpmos/models/cap/mosvci.scs
Reading file:  /home/saul/pkg/xfab/XKIT/xh018/cadence/v9_0/spectre/v9_0_2/lpmos/models/cap/mosvci_nmos.scs
Reading file:  /home/saul/pkg/xfab/XKIT/xh018/cadence/v9_0/spectre/v9_0_2/lpmos/models/cap/mosvci_m.scs
Reading file:  /home/saul/pkg/xfab/XKIT/xh018/cadence/v9_0/spectre/v9_0_2/lpmos/models/cap/mosvc3.scs
Reading file:  /home/saul/pkg/xfab/XKIT/xh018/cadence/v9_0/spectre/v9_0_2/lpmos/models/cap/mosvc3_pmos.scs
Reading file:  /home/saul/pkg/xfab/XKIT/xh018/cadence/v9_0/spectre/v9_0_2/lpmos/models/cap/mosvc3i.scs
Reading file:  /home/saul/pkg/xfab/XKIT/xh018/cadence/v9_0/spectre/v9_0_2/lpmos/models/cap/mosvc3i_nmos.scs
Reading file:  /home/saul/pkg/xfab/XKIT/xh018/cadence/v9_0/spectre/v9_0_2/lpmos/models/cap/mosvc3i_m.scs
Reading file:  /home/saul/pkg/xfab/XKIT/xh018/cadence/v9_0/spectre/v9_0_2/lpmos/models/cap/cpod.scs
Reading file:  /home/saul/pkg/xfab/XKIT/xh018/cadence/v9_0/spectre/v9_0_2/lpmos/models/cap/cpod_i.scs
Reading file:  /home/saul/pkg/xfab/XKIT/xh018/cadence/v9_0/spectre/v9_0_2/lpmos/models/cap/cpodhv.scs
Reading file:  /home/saul/pkg/xfab/XKIT/xh018/cadence/v9_0/spectre/v9_0_2/lpmos/models/cap/cpodhv_i.scs
Reading file:  /home/saul/pkg/xfab/XKIT/xh018/cadence/v9_0/spectre/v9_0_2/lpmos/models/cap/cp1sub.scs
Reading file:  /home/saul/pkg/xfab/XKIT/xh018/cadence/v9_0/spectre/v9_0_2/lpmos/models/cap/cp1suba.scs
Reading file:  /home/saul/pkg/xfab/XKIT/xh018/cadence/v9_0/spectre/v9_0_2/lpmos/models/cap/cp1subp.scs
Reading file:  /home/saul/pkg/xfab/XKIT/xh018/cadence/v9_0/spectre/v9_0_2/lpmos/models/cap/tag_25v.scs
Reading file:  /home/saul/pkg/xfab/XKIT/xh018/cadence/v9_0/spectre/v9_0_2/lpmos/models/cap/tag_60v.scs
Reading file:  /home/saul/pkg/xfab/XKIT/xh018/cadence/v9_0/spectre/v9_0_2/lpmos/dio.scs
Reading file:  /home/saul/pkg/xfab/XKIT/xh018/cadence/v9_0/spectre/v9_0_2/lpmos/models/dio/tm_dio.scs
Reading file:  /home/saul/pkg/xfab/XKIT/xh018/cadence/v9_0/spectre/v9_0_2/lpmos/models/dio/dn.scs
Reading file:  /home/saul/pkg/xfab/XKIT/xh018/cadence/v9_0/spectre/v9_0_2/lpmos/models/dio/dp.scs
Reading file:  /home/saul/pkg/xfab/XKIT/xh018/cadence/v9_0/spectre/v9_0_2/lpmos/models/dio/dnw.scs
Reading file:  /home/saul/pkg/xfab/XKIT/xh018/cadence/v9_0/spectre/v9_0_2/lpmos/models/dio/dn3.scs
Reading file:  /home/saul/pkg/xfab/XKIT/xh018/cadence/v9_0/spectre/v9_0_2/lpmos/models/dio/dnn3.scs
Reading file:  /home/saul/pkg/xfab/XKIT/xh018/cadence/v9_0/spectre/v9_0_2/lpmos/models/dio/dp3.scs
Reading file:  /home/saul/pkg/xfab/XKIT/xh018/cadence/v9_0/spectre/v9_0_2/lpmos/models/dio/dnw3.scs
Reading file:  /home/saul/pkg/xfab/XKIT/xh018/cadence/v9_0/spectre/v9_0_2/lpmos/models/dio/ddnwmv.scs
Reading file:  /home/saul/pkg/xfab/XKIT/xh018/cadence/v9_0/spectre/v9_0_2/lpmos/models/dio/dpdnwmv.scs
Reading file:  /home/saul/pkg/xfab/XKIT/xh018/cadence/v9_0/spectre/v9_0_2/lpmos/models/dio/dipdnwmv.scs
Reading file:  /home/saul/pkg/xfab/XKIT/xh018/cadence/v9_0/spectre/v9_0_2/lpmos/models/dio/ddnw.scs
Reading file:  /home/saul/pkg/xfab/XKIT/xh018/cadence/v9_0/spectre/v9_0_2/lpmos/models/dio/dpdnw.scs
Reading file:  /home/saul/pkg/xfab/XKIT/xh018/cadence/v9_0/spectre/v9_0_2/lpmos/models/dio/dipdnw.scs
Reading file:  /home/saul/pkg/xfab/XKIT/xh018/cadence/v9_0/spectre/v9_0_2/lpmos/models/dio/dnhpw.scs
Reading file:  /home/saul/pkg/xfab/XKIT/xh018/cadence/v9_0/spectre/v9_0_2/lpmos/models/dio/dnhpwa.scs
Reading file:  /home/saul/pkg/xfab/XKIT/xh018/cadence/v9_0/spectre/v9_0_2/lpmos/models/dio/dphnw.scs
Reading file:  /home/saul/pkg/xfab/XKIT/xh018/cadence/v9_0/spectre/v9_0_2/lpmos/models/dio/dphnwa.scs
Reading file:  /home/saul/pkg/xfab/XKIT/xh018/cadence/v9_0/spectre/v9_0_2/lpmos/models/dio/dhpw.scs
Reading file:  /home/saul/pkg/xfab/XKIT/xh018/cadence/v9_0/spectre/v9_0_2/lpmos/models/dio/dhnw.scs
Reading file:  /home/saul/pkg/xfab/XKIT/xh018/cadence/v9_0/spectre/v9_0_2/lpmos/models/dio/dndf.scs
Reading file:  /home/saul/pkg/xfab/XKIT/xh018/cadence/v9_0/spectre/v9_0_2/lpmos/models/dio/dpdwhn.scs
Reading file:  /home/saul/pkg/xfab/XKIT/xh018/cadence/v9_0/spectre/v9_0_2/lpmos/models/dio/dwhn.scs
Reading file:  /home/saul/pkg/xfab/XKIT/xh018/cadence/v9_0/spectre/v9_0_2/lpmos/models/dio/dpwhn.scs
Reading file:  /home/saul/pkg/xfab/XKIT/xh018/cadence/v9_0/spectre/v9_0_2/lpmos/models/dio/dpndf.scs
Reading file:  /home/saul/pkg/xfab/XKIT/xh018/cadence/v9_0/spectre/v9_0_2/lpmos/models/dio/dpdddnw.scs
Reading file:  /home/saul/pkg/xfab/XKIT/xh018/cadence/v9_0/spectre/v9_0_2/lpmos/models/dio/ddpldnw.scs
Reading file:  /home/saul/pkg/xfab/XKIT/xh018/cadence/v9_0/spectre/v9_0_2/lpmos/models/dio/dn3dpl.scs
Reading file:  /home/saul/pkg/xfab/XKIT/xh018/cadence/v9_0/spectre/v9_0_2/lpmos/models/dio/dbn.scs
Reading file:  /home/saul/pkg/xfab/XKIT/xh018/cadence/v9_0/spectre/v9_0_2/lpmos/models/dio/dpol.scs
Reading file:  /home/saul/pkg/xfab/XKIT/xh018/cadence/v9_0/spectre/v9_0_2/lpmos/models/dio/dnpdd_scr.scs
Reading file:  /home/saul/pkg/xfab/XKIT/xh018/cadence/v9_0/spectre/v9_0_2/lpmos/models/dio/dpdd_scr.scs
Reading file:  /home/saul/pkg/xfab/XKIT/xh018/cadence/v9_0/spectre/v9_0_2/lpmos/models/dio/dsb.scs
Reading file:  /home/saul/pkg/xfab/XKIT/xh018/cadence/v9_0/spectre/v9_0_2/lpmos/models/dio/dsba.scs
Reading file:  /home/saul/pkg/xfab/XKIT/xh018/cadence/v9_0/spectre/v9_0_2/lpmos/models/dio/dsba_qp1.scs
Reading file:  /home/saul/pkg/xfab/XKIT/xh018/cadence/v9_0/spectre/v9_0_2/lpmos/models/dio/dnp20.scs
Reading file:  /home/saul/pkg/xfab/XKIT/xh018/cadence/v9_0/spectre/v9_0_2/lpmos/models/dio/dpp20.scs
Reading file:  /home/saul/pkg/xfab/XKIT/xh018/cadence/v9_0/spectre/v9_0_2/lpmos/models/dio/dn3sci.scs
Reading file:  /home/saul/pkg/xfab/XKIT/xh018/cadence/v9_0/spectre/v9_0_2/lpmos/models/dio/dscidnwmv.scs
Reading file:  /home/saul/pkg/xfab/XKIT/xh018/cadence/v9_0/spectre/v9_0_2/lpmos/mos.scs
Reading file:  /home/saul/pkg/xfab/XKIT/xh018/cadence/v9_0/spectre/v9_0_2/lpmos/models/mos/tm_mos.scs
Reading file:  /home/saul/pkg/xfab/XKIT/xh018/cadence/v9_0/spectre/v9_0_2/lpmos/models/mos/ne.scs
Reading file:  /home/saul/pkg/xfab/XKIT/xh018/cadence/v9_0/spectre/v9_0_2/lpmos/models/mos/nei.scs
Reading file:  /home/saul/pkg/xfab/XKIT/xh018/cadence/v9_0/spectre/v9_0_2/lpmos/models/mos/nei_6.scs
Reading file:  /home/saul/pkg/xfab/XKIT/xh018/cadence/v9_0/spectre/v9_0_2/lpmos/models/mos/nei_m_6.scs
Reading file:  /home/saul/pkg/xfab/XKIT/xh018/cadence/v9_0/spectre/v9_0_2/lpmos/models/mos/pe.scs
Reading file:  /home/saul/pkg/xfab/XKIT/xh018/cadence/v9_0/spectre/v9_0_2/lpmos/models/mos/pe_5.scs
Reading file:  /home/saul/pkg/xfab/XKIT/xh018/cadence/v9_0/spectre/v9_0_2/lpmos/models/mos/pei.scs
Reading file:  /home/saul/pkg/xfab/XKIT/xh018/cadence/v9_0/spectre/v9_0_2/lpmos/models/mos/pei_5.scs
Reading file:  /home/saul/pkg/xfab/XKIT/xh018/cadence/v9_0/spectre/v9_0_2/lpmos/models/mos/pei_m_5.scs
Reading file:  /home/saul/pkg/xfab/XKIT/xh018/cadence/v9_0/spectre/v9_0_2/lpmos/models/mos/nel.scs
Reading file:  /home/saul/pkg/xfab/XKIT/xh018/cadence/v9_0/spectre/v9_0_2/lpmos/models/mos/neli.scs
Reading file:  /home/saul/pkg/xfab/XKIT/xh018/cadence/v9_0/spectre/v9_0_2/lpmos/models/mos/neli_6.scs
Reading file:  /home/saul/pkg/xfab/XKIT/xh018/cadence/v9_0/spectre/v9_0_2/lpmos/models/mos/neli_m_6.scs
Reading file:  /home/saul/pkg/xfab/XKIT/xh018/cadence/v9_0/spectre/v9_0_2/lpmos/models/mos/pel.scs
Reading file:  /home/saul/pkg/xfab/XKIT/xh018/cadence/v9_0/spectre/v9_0_2/lpmos/models/mos/pel_5.scs
Reading file:  /home/saul/pkg/xfab/XKIT/xh018/cadence/v9_0/spectre/v9_0_2/lpmos/models/mos/peli.scs
Reading file:  /home/saul/pkg/xfab/XKIT/xh018/cadence/v9_0/spectre/v9_0_2/lpmos/models/mos/peli_5.scs
Reading file:  /home/saul/pkg/xfab/XKIT/xh018/cadence/v9_0/spectre/v9_0_2/lpmos/models/mos/peli_m_5.scs
Reading file:  /home/saul/pkg/xfab/XKIT/xh018/cadence/v9_0/spectre/v9_0_2/lpmos/models/mos/nn3.scs
Reading file:  /home/saul/pkg/xfab/XKIT/xh018/cadence/v9_0/spectre/v9_0_2/lpmos/models/mos/ne3.scs
Reading file:  /home/saul/pkg/xfab/XKIT/xh018/cadence/v9_0/spectre/v9_0_2/lpmos/models/mos/ne3i.scs
Reading file:  /home/saul/pkg/xfab/XKIT/xh018/cadence/v9_0/spectre/v9_0_2/lpmos/models/mos/ne3i_6.scs
Reading file:  /home/saul/pkg/xfab/XKIT/xh018/cadence/v9_0/spectre/v9_0_2/lpmos/models/mos/ne3i_m_6.scs
Reading file:  /home/saul/pkg/xfab/XKIT/xh018/cadence/v9_0/spectre/v9_0_2/lpmos/models/mos/pe3.scs
Reading file:  /home/saul/pkg/xfab/XKIT/xh018/cadence/v9_0/spectre/v9_0_2/lpmos/models/mos/pe3_5.scs
Reading file:  /home/saul/pkg/xfab/XKIT/xh018/cadence/v9_0/spectre/v9_0_2/lpmos/models/mos/pe3i.scs
Reading file:  /home/saul/pkg/xfab/XKIT/xh018/cadence/v9_0/spectre/v9_0_2/lpmos/models/mos/pe3i_5.scs
Reading file:  /home/saul/pkg/xfab/XKIT/xh018/cadence/v9_0/spectre/v9_0_2/lpmos/models/mos/pe3i_m_5.scs
Reading file:  /home/saul/pkg/xfab/XKIT/xh018/cadence/v9_0/spectre/v9_0_2/lpmos/models/mos/pe3ln.scs
Reading file:  /home/saul/pkg/xfab/XKIT/xh018/cadence/v9_0/spectre/v9_0_2/lpmos/models/mos/pe3ln_5.scs
Reading file:  /home/saul/pkg/xfab/XKIT/xh018/cadence/v9_0/spectre/v9_0_2/lpmos/models/mos/pe3lni.scs
Reading file:  /home/saul/pkg/xfab/XKIT/xh018/cadence/v9_0/spectre/v9_0_2/lpmos/models/mos/pe3lni_5.scs
Reading file:  /home/saul/pkg/xfab/XKIT/xh018/cadence/v9_0/spectre/v9_0_2/lpmos/models/mos/pe3lni_m_5.scs
Reading file:  /home/saul/pkg/xfab/XKIT/xh018/cadence/v9_0/spectre/v9_0_2/lpmos/models/mos/nd3.scs
Reading file:  /home/saul/pkg/xfab/XKIT/xh018/cadence/v9_0/spectre/v9_0_2/lpmos/models/mos/nd3_mos1.scs
Reading file:  /home/saul/pkg/xfab/XKIT/xh018/cadence/v9_0/spectre/v9_0_2/lpmos/models/mos/nd3_mos2.scs
Reading file:  /home/saul/pkg/xfab/XKIT/xh018/cadence/v9_0/spectre/v9_0_2/lpmos/models/mos/nd3i.scs
Reading file:  /home/saul/pkg/xfab/XKIT/xh018/cadence/v9_0/spectre/v9_0_2/lpmos/models/mos/nd3i_mos1.scs
Reading file:  /home/saul/pkg/xfab/XKIT/xh018/cadence/v9_0/spectre/v9_0_2/lpmos/models/mos/nd3i_mos2.scs
Reading file:  /home/saul/pkg/xfab/XKIT/xh018/cadence/v9_0/spectre/v9_0_2/lpmos/models/mos/nd3i_6.scs
Reading file:  /home/saul/pkg/xfab/XKIT/xh018/cadence/v9_0/spectre/v9_0_2/lpmos/models/mos/nd3i_m_6.scs
Reading file:  /home/saul/pkg/xfab/XKIT/xh018/cadence/v9_0/spectre/v9_0_2/lpmos/models/mos/nelna.scs
Reading file:  /home/saul/pkg/xfab/XKIT/xh018/cadence/v9_0/spectre/v9_0_2/lpmos/models/mos/nelnai.scs
Reading file:  /home/saul/pkg/xfab/XKIT/xh018/cadence/v9_0/spectre/v9_0_2/lpmos/models/mos/nelnai_6.scs
Reading file:  /home/saul/pkg/xfab/XKIT/xh018/cadence/v9_0/spectre/v9_0_2/lpmos/models/mos/nelnai_m_6.scs
Reading file:  /home/saul/pkg/xfab/XKIT/xh018/cadence/v9_0/spectre/v9_0_2/lpmos/models/mos/ne3lna.scs
Reading file:  /home/saul/pkg/xfab/XKIT/xh018/cadence/v9_0/spectre/v9_0_2/lpmos/models/mos/ne3lnai.scs
Reading file:  /home/saul/pkg/xfab/XKIT/xh018/cadence/v9_0/spectre/v9_0_2/lpmos/models/mos/ne3lnai_6.scs
Reading file:  /home/saul/pkg/xfab/XKIT/xh018/cadence/v9_0/spectre/v9_0_2/lpmos/models/mos/ne3lnai_m_6.scs
Reading file:  /home/saul/pkg/xfab/XKIT/xh018/cadence/v9_0/spectre/v9_0_2/lpmos/models/mos/pe3lna.scs
Reading file:  /home/saul/pkg/xfab/XKIT/xh018/cadence/v9_0/spectre/v9_0_2/lpmos/models/mos/pe3lna_5.scs
Reading file:  /home/saul/pkg/xfab/XKIT/xh018/cadence/v9_0/spectre/v9_0_2/lpmos/models/mos/pe3lnai.scs
Reading file:  /home/saul/pkg/xfab/XKIT/xh018/cadence/v9_0/spectre/v9_0_2/lpmos/models/mos/pe3lnai_5.scs
Reading file:  /home/saul/pkg/xfab/XKIT/xh018/cadence/v9_0/spectre/v9_0_2/lpmos/models/mos/pe3lnai_m_5.scs
Reading file:  /home/saul/pkg/xfab/XKIT/xh018/cadence/v9_0/spectre/v9_0_2/lpmos/models/mos/nmma.scs
Reading file:  /home/saul/pkg/xfab/XKIT/xh018/cadence/v9_0/spectre/v9_0_2/lpmos/models/mos/jf_nmma.scs
Reading file:  /home/saul/pkg/xfab/XKIT/xh018/cadence/v9_0/spectre/v9_0_2/lpmos/models/mos/nmma_bjt.scs
Reading file:  /home/saul/pkg/xfab/XKIT/xh018/cadence/v9_0/spectre/v9_0_2/lpmos/models/mos/pmma.scs
Reading file:  /home/saul/pkg/xfab/XKIT/xh018/cadence/v9_0/spectre/v9_0_2/lpmos/models/mos/jf_pmma.scs
Reading file:  /home/saul/pkg/xfab/XKIT/xh018/cadence/v9_0/spectre/v9_0_2/lpmos/models/mos/pmma_bjt.scs
Reading file:  /home/saul/pkg/xfab/XKIT/xh018/cadence/v9_0/spectre/v9_0_2/lpmos/models/mos/nedi.scs
Reading file:  /home/saul/pkg/xfab/XKIT/xh018/cadence/v9_0/spectre/v9_0_2/lpmos/models/mos/nedi_bjt.scs
Reading file:  /home/saul/pkg/xfab/XKIT/xh018/cadence/v9_0/spectre/v9_0_2/lpmos/models/mos/nedia.scs
Reading file:  /home/saul/pkg/xfab/XKIT/xh018/cadence/v9_0/spectre/v9_0_2/lpmos/models/mos/nedia_bjt.scs
Reading file:  /home/saul/pkg/xfab/XKIT/xh018/cadence/v9_0/spectre/v9_0_2/lpmos/models/mos/ped2.scs
Reading file:  /home/saul/pkg/xfab/XKIT/xh018/cadence/v9_0/spectre/v9_0_2/lpmos/models/mos/ped2_bjt.scs
Reading file:  /home/saul/pkg/xfab/XKIT/xh018/cadence/v9_0/spectre/v9_0_2/lpmos/models/mos/ped.scs
Reading file:  /home/saul/pkg/xfab/XKIT/xh018/cadence/v9_0/spectre/v9_0_2/lpmos/models/mos/ped_bjt.scs
Reading file:  /home/saul/pkg/xfab/XKIT/xh018/cadence/v9_0/spectre/v9_0_2/lpmos/models/mos/nhv.scs
Reading file:  /home/saul/pkg/xfab/XKIT/xh018/cadence/v9_0/spectre/v9_0_2/lpmos/models/mos/nhv_mos2.scs
Reading file:  /home/saul/pkg/xfab/XKIT/xh018/cadence/v9_0/spectre/v9_0_2/lpmos/models/mos/nhv_bjt.scs
Reading file:  /home/saul/pkg/xfab/XKIT/xh018/cadence/v9_0/spectre/v9_0_2/lpmos/models/mos/nhhv.scs
Reading file:  /home/saul/pkg/xfab/XKIT/xh018/cadence/v9_0/spectre/v9_0_2/lpmos/models/mos/nhhv_mos2.scs
Reading file:  /home/saul/pkg/xfab/XKIT/xh018/cadence/v9_0/spectre/v9_0_2/lpmos/models/mos/nhhv_bjt.scs
Reading file:  /home/saul/pkg/xfab/XKIT/xh018/cadence/v9_0/spectre/v9_0_2/lpmos/models/mos/nmmc.scs
Reading file:  /home/saul/pkg/xfab/XKIT/xh018/cadence/v9_0/spectre/v9_0_2/lpmos/models/mos/nmmc_mos2.scs
Reading file:  /home/saul/pkg/xfab/XKIT/xh018/cadence/v9_0/spectre/v9_0_2/lpmos/models/mos/nmmc_bjt.scs
Reading file:  /home/saul/pkg/xfab/XKIT/xh018/cadence/v9_0/spectre/v9_0_2/lpmos/models/mos/nmmd.scs
Reading file:  /home/saul/pkg/xfab/XKIT/xh018/cadence/v9_0/spectre/v9_0_2/lpmos/models/mos/nmmd_mos2.scs
Reading file:  /home/saul/pkg/xfab/XKIT/xh018/cadence/v9_0/spectre/v9_0_2/lpmos/models/mos/nmmd_bjt.scs
Reading file:  /home/saul/pkg/xfab/XKIT/xh018/cadence/v9_0/spectre/v9_0_2/lpmos/models/mos/nmc.scs
Reading file:  /home/saul/pkg/xfab/XKIT/xh018/cadence/v9_0/spectre/v9_0_2/lpmos/models/mos/nmc_mos2.scs
Reading file:  /home/saul/pkg/xfab/XKIT/xh018/cadence/v9_0/spectre/v9_0_2/lpmos/models/mos/nmc_bjt.scs
Reading file:  /home/saul/pkg/xfab/XKIT/xh018/cadence/v9_0/spectre/v9_0_2/lpmos/models/mos/nma.scs
Reading file:  /home/saul/pkg/xfab/XKIT/xh018/cadence/v9_0/spectre/v9_0_2/lpmos/models/mos/nma_bjt.scs
Reading file:  /home/saul/pkg/xfab/XKIT/xh018/cadence/v9_0/spectre/v9_0_2/lpmos/models/mos/phv.scs
Reading file:  /home/saul/pkg/xfab/XKIT/xh018/cadence/v9_0/spectre/v9_0_2/lpmos/models/mos/phv_mos2.scs
Reading file:  /home/saul/pkg/xfab/XKIT/xh018/cadence/v9_0/spectre/v9_0_2/lpmos/models/mos/phv_bjt.scs
Reading file:  /home/saul/pkg/xfab/XKIT/xh018/cadence/v9_0/spectre/v9_0_2/lpmos/models/mos/phhv.scs
Reading file:  /home/saul/pkg/xfab/XKIT/xh018/cadence/v9_0/spectre/v9_0_2/lpmos/models/mos/phhv_mos2.scs
Reading file:  /home/saul/pkg/xfab/XKIT/xh018/cadence/v9_0/spectre/v9_0_2/lpmos/models/mos/phhv_bjt.scs
Reading file:  /home/saul/pkg/xfab/XKIT/xh018/cadence/v9_0/spectre/v9_0_2/lpmos/models/mos/pmc.scs
Reading file:  /home/saul/pkg/xfab/XKIT/xh018/cadence/v9_0/spectre/v9_0_2/lpmos/models/mos/pmc_mos2.scs
Reading file:  /home/saul/pkg/xfab/XKIT/xh018/cadence/v9_0/spectre/v9_0_2/lpmos/models/mos/pmc_bjt.scs
Reading file:  /home/saul/pkg/xfab/XKIT/xh018/cadence/v9_0/spectre/v9_0_2/lpmos/models/mos/pmmc.scs
Reading file:  /home/saul/pkg/xfab/XKIT/xh018/cadence/v9_0/spectre/v9_0_2/lpmos/models/mos/pmmc_mos2.scs
Reading file:  /home/saul/pkg/xfab/XKIT/xh018/cadence/v9_0/spectre/v9_0_2/lpmos/models/mos/pmmc_bjt.scs
Reading file:  /home/saul/pkg/xfab/XKIT/xh018/cadence/v9_0/spectre/v9_0_2/lpmos/models/mos/pma.scs
Reading file:  /home/saul/pkg/xfab/XKIT/xh018/cadence/v9_0/spectre/v9_0_2/lpmos/models/mos/pma_bjt.scs
Reading file:  /home/saul/pkg/xfab/XKIT/xh018/cadence/v9_0/spectre/v9_0_2/lpmos/models/mos/pmb.scs
Reading file:  /home/saul/pkg/xfab/XKIT/xh018/cadence/v9_0/spectre/v9_0_2/lpmos/models/mos/nesvt.scs
Reading file:  /home/saul/pkg/xfab/XKIT/xh018/cadence/v9_0/spectre/v9_0_2/lpmos/models/mos/nesvti.scs
Reading file:  /home/saul/pkg/xfab/XKIT/xh018/cadence/v9_0/spectre/v9_0_2/lpmos/models/mos/nesvti_6.scs
Reading file:  /home/saul/pkg/xfab/XKIT/xh018/cadence/v9_0/spectre/v9_0_2/lpmos/models/mos/nesvti_m_6.scs
Reading file:  /home/saul/pkg/xfab/XKIT/xh018/cadence/v9_0/spectre/v9_0_2/lpmos/models/mos/pesvt.scs
Reading file:  /home/saul/pkg/xfab/XKIT/xh018/cadence/v9_0/spectre/v9_0_2/lpmos/models/mos/pesvt_5.scs
Reading file:  /home/saul/pkg/xfab/XKIT/xh018/cadence/v9_0/spectre/v9_0_2/lpmos/models/mos/pesvti.scs
Reading file:  /home/saul/pkg/xfab/XKIT/xh018/cadence/v9_0/spectre/v9_0_2/lpmos/models/mos/pesvti_5.scs
Reading file:  /home/saul/pkg/xfab/XKIT/xh018/cadence/v9_0/spectre/v9_0_2/lpmos/models/mos/pesvti_m_5.scs
Reading file:  /home/saul/pkg/xfab/XKIT/xh018/cadence/v9_0/spectre/v9_0_2/lpmos/models/mos/nhvd.scs
Reading file:  /home/saul/pkg/xfab/XKIT/xh018/cadence/v9_0/spectre/v9_0_2/lpmos/models/mos/nhvd_bjt.scs
Reading file:  /home/saul/pkg/xfab/XKIT/xh018/cadence/v9_0/spectre/v9_0_2/lpmos/models/mos/nhhvd.scs
Reading file:  /home/saul/pkg/xfab/XKIT/xh018/cadence/v9_0/spectre/v9_0_2/lpmos/models/mos/nhhvd_bjt.scs
Reading file:  /home/saul/pkg/xfab/XKIT/xh018/cadence/v9_0/spectre/v9_0_2/lpmos/photo.scs
Reading file:  /home/saul/pkg/xfab/XKIT/xh018/cadence/v9_0/spectre/v9_0_2/lpmos/models/photo/tm_pho.scs
Reading file:  /home/saul/pkg/xfab/XKIT/xh018/cadence/v9_0/spectre/v9_0_2/lpmos/models/photo/dphoa.scs
Reading file:  /home/saul/pkg/xfab/XKIT/xh018/cadence/v9_0/spectre/v9_0_2/lpmos/models/photo/dpho.va
Reading link:  /pkg/cadence/installs/SPECTRE231/tools.lnx86/spectre/etc/ahdl/constants.h
Reading file:  /home/saul/cadence/installs/SPECTRE231/tools.lnx86/spectre/etc/ahdl/constants.vams
Reading link:  /pkg/cadence/installs/SPECTRE231/tools.lnx86/spectre/etc/ahdl/discipline.h
Reading file:  /home/saul/cadence/installs/SPECTRE231/tools.lnx86/spectre/etc/ahdl/disciplines.vams
Reading file:  /home/saul/pkg/xfab/XKIT/xh018/cadence/v9_0/spectre/v9_0_2/lpmos/models/photo/dphob.scs
Reading file:  /home/saul/pkg/xfab/XKIT/xh018/cadence/v9_0/spectre/v9_0_2/lpmos/models/photo/dphoc.scs
Reading file:  /home/saul/pkg/xfab/XKIT/xh018/cadence/v9_0/spectre/v9_0_2/lpmos/models/photo/iphoto_uv.va
Reading file:  /home/saul/pkg/xfab/XKIT/xh018/cadence/v9_0/spectre/v9_0_2/lpmos/models/photo/dphoc_cat.scs
Reading file:  /home/saul/pkg/xfab/XKIT/xh018/cadence/v9_0/spectre/v9_0_2/lpmos/models/photo/dphoc0.scs
Reading file:  /home/saul/pkg/xfab/XKIT/xh018/cadence/v9_0/spectre/v9_0_2/lpmos/models/photo/dphoc0_cat.scs
Reading file:  /home/saul/pkg/xfab/XKIT/xh018/cadence/v9_0/spectre/v9_0_2/lpmos/models/photo/dphocfp.scs
Reading file:  /home/saul/pkg/xfab/XKIT/xh018/cadence/v9_0/spectre/v9_0_2/lpmos/models/photo/dphocfp_cat.scs
Reading file:  /home/saul/pkg/xfab/XKIT/xh018/cadence/v9_0/spectre/v9_0_2/lpmos/models/photo/dphod.scs
Reading file:  /home/saul/pkg/xfab/XKIT/xh018/cadence/v9_0/spectre/v9_0_2/lpmos/models/photo/dphod_an1.scs
Reading file:  /home/saul/pkg/xfab/XKIT/xh018/cadence/v9_0/spectre/v9_0_2/lpmos/models/photo/dphod_an2.scs
Reading file:  /home/saul/pkg/xfab/XKIT/xh018/cadence/v9_0/spectre/v9_0_2/lpmos/models/photo/dphod0.scs
Reading file:  /home/saul/pkg/xfab/XKIT/xh018/cadence/v9_0/spectre/v9_0_2/lpmos/models/photo/dphod0_an1.scs
Reading file:  /home/saul/pkg/xfab/XKIT/xh018/cadence/v9_0/spectre/v9_0_2/lpmos/models/photo/dphod0_an2.scs
Reading file:  /home/saul/pkg/xfab/XKIT/xh018/cadence/v9_0/spectre/v9_0_2/lpmos/models/photo/dphodfp.scs
Reading file:  /home/saul/pkg/xfab/XKIT/xh018/cadence/v9_0/spectre/v9_0_2/lpmos/models/photo/dphodfp_an1.scs
Reading file:  /home/saul/pkg/xfab/XKIT/xh018/cadence/v9_0/spectre/v9_0_2/lpmos/models/photo/dphodfp_an2.scs
Reading file:  /home/saul/pkg/xfab/XKIT/xh018/cadence/v9_0/spectre/v9_0_2/lpmos/models/photo/dspada0.scs
Reading file:  /home/saul/pkg/xfab/XKIT/xh018/cadence/v9_0/spectre/v9_0_2/lpmos/models/photo/ispad.va
Reading file:  /home/saul/pkg/xfab/XKIT/xh018/cadence/v9_0/spectre/v9_0_2/lpmos/models/photo/dapb.scs
Reading file:  /home/saul/pkg/xfab/XKIT/xh018/cadence/v9_0/spectre/v9_0_2/lpmos/models/photo/iphoto_apd_trig.va
Reading file:  /home/saul/pkg/xfab/XKIT/xh018/cadence/v9_0/spectre/v9_0_2/lpmos/models/photo/dapb_jun.scs
Reading file:  /home/saul/pkg/xfab/XKIT/xh018/cadence/v9_0/spectre/v9_0_2/lpmos/models/photo/dapb_trig.scs
Reading file:  /home/saul/pkg/xfab/XKIT/xh018/cadence/v9_0/spectre/v9_0_2/lpmos/models/photo/dapb0.scs
Reading file:  /home/saul/pkg/xfab/XKIT/xh018/cadence/v9_0/spectre/v9_0_2/lpmos/models/photo/dapb0_jun.scs
Reading file:  /home/saul/pkg/xfab/XKIT/xh018/cadence/v9_0/spectre/v9_0_2/lpmos/models/photo/dspb.scs
Reading file:  /home/saul/pkg/xfab/XKIT/xh018/cadence/v9_0/spectre/v9_0_2/lpmos/models/photo/ispad_trig.va
Reading file:  /home/saul/pkg/xfab/XKIT/xh018/cadence/v9_0/spectre/v9_0_2/lpmos/models/photo/dspb_jun.scs
Reading file:  /home/saul/pkg/xfab/XKIT/xh018/cadence/v9_0/spectre/v9_0_2/lpmos/models/photo/dspb_trig.scs
Reading file:  /home/saul/pkg/xfab/XKIT/xh018/cadence/v9_0/spectre/v9_0_2/lpmos/models/photo/dspb0.scs
Reading file:  /home/saul/pkg/xfab/XKIT/xh018/cadence/v9_0/spectre/v9_0_2/lpmos/models/photo/dspb0_jun.scs
Reading file:  /home/saul/pkg/xfab/XKIT/xh018/cadence/v9_0/spectre/v9_0_2/lpmos/models/photo/dspbfep.scs
Reading file:  /home/saul/pkg/xfab/XKIT/xh018/cadence/v9_0/spectre/v9_0_2/lpmos/models/photo/dapda.scs
Reading file:  /home/saul/pkg/xfab/XKIT/xh018/cadence/v9_0/spectre/v9_0_2/lpmos/models/photo/iphoto_apd.va
Reading file:  /home/saul/pkg/xfab/XKIT/xh018/cadence/v9_0/spectre/v9_0_2/lpmos/models/photo/dapda_cat.scs
Reading file:  /home/saul/pkg/xfab/XKIT/xh018/cadence/v9_0/spectre/v9_0_2/lpmos/models/photo/dapda0.scs
Reading file:  /home/saul/pkg/xfab/XKIT/xh018/cadence/v9_0/spectre/v9_0_2/lpmos/models/photo/dspada.scs
Reading file:  /home/saul/pkg/xfab/XKIT/xh018/cadence/v9_0/spectre/v9_0_2/lpmos/models/photo/dspada_cat.scs
Reading file:  /home/saul/pkg/xfab/XKIT/xh018/cadence/v9_0/spectre/v9_0_2/lpmos/res.scs
Reading file:  /home/saul/pkg/xfab/XKIT/xh018/cadence/v9_0/spectre/v9_0_2/lpmos/models/res/tm_res.scs
Reading file:  /home/saul/pkg/xfab/XKIT/xh018/cadence/v9_0/spectre/v9_0_2/lpmos/models/res/rdn.scs
Reading file:  /home/saul/pkg/xfab/XKIT/xh018/cadence/v9_0/spectre/v9_0_2/lpmos/models/res/rdn_esd.scs
Reading file:  /home/saul/pkg/xfab/XKIT/xh018/cadence/v9_0/spectre/v9_0_2/lpmos/models/res/rdp.scs
Reading file:  /home/saul/pkg/xfab/XKIT/xh018/cadence/v9_0/spectre/v9_0_2/lpmos/models/res/rdp_io.scs
Reading file:  /home/saul/pkg/xfab/XKIT/xh018/cadence/v9_0/spectre/v9_0_2/lpmos/models/res/rdp_esd.scs
Reading file:  /home/saul/pkg/xfab/XKIT/xh018/cadence/v9_0/spectre/v9_0_2/lpmos/models/res/rnw.scs
Reading file:  /home/saul/pkg/xfab/XKIT/xh018/cadence/v9_0/spectre/v9_0_2/lpmos/models/res/rnw_scr.scs
Reading file:  /home/saul/pkg/xfab/XKIT/xh018/cadence/v9_0/spectre/v9_0_2/lpmos/models/res/rdn3.scs
Reading file:  /home/saul/pkg/xfab/XKIT/xh018/cadence/v9_0/spectre/v9_0_2/lpmos/models/res/rdp3.scs
Reading file:  /home/saul/pkg/xfab/XKIT/xh018/cadence/v9_0/spectre/v9_0_2/lpmos/models/res/rnw3.scs
Reading file:  /home/saul/pkg/xfab/XKIT/xh018/cadence/v9_0/spectre/v9_0_2/lpmos/models/res/rnw3_scr.scs
Reading file:  /home/saul/pkg/xfab/XKIT/xh018/cadence/v9_0/spectre/v9_0_2/lpmos/models/res/rdnwmv.scs
Reading file:  /home/saul/pkg/xfab/XKIT/xh018/cadence/v9_0/spectre/v9_0_2/lpmos/models/res/rnp1.scs
Reading file:  /home/saul/pkg/xfab/XKIT/xh018/cadence/v9_0/spectre/v9_0_2/lpmos/models/res/rnp1_3.scs
Reading file:  /home/saul/pkg/xfab/XKIT/xh018/cadence/v9_0/spectre/v9_0_2/lpmos/models/res/rpp1.scs
Reading file:  /home/saul/pkg/xfab/XKIT/xh018/cadence/v9_0/spectre/v9_0_2/lpmos/models/res/rpp1_3.scs
Reading file:  /home/saul/pkg/xfab/XKIT/xh018/cadence/v9_0/spectre/v9_0_2/lpmos/models/res/rpp1s.scs
Reading file:  /home/saul/pkg/xfab/XKIT/xh018/cadence/v9_0/spectre/v9_0_2/lpmos/models/res/rpp1s_3.scs
Reading file:  /home/saul/pkg/xfab/XKIT/xh018/cadence/v9_0/spectre/v9_0_2/lpmos/models/res/rnp1h.scs
Reading file:  /home/saul/pkg/xfab/XKIT/xh018/cadence/v9_0/spectre/v9_0_2/lpmos/models/res/rnp1h_3.scs
Reading file:  /home/saul/pkg/xfab/XKIT/xh018/cadence/v9_0/spectre/v9_0_2/lpmos/models/res/rpp1k1.scs
Reading file:  /home/saul/pkg/xfab/XKIT/xh018/cadence/v9_0/spectre/v9_0_2/lpmos/models/res/rpp1k1_3.scs
Reading file:  /home/saul/pkg/xfab/XKIT/xh018/cadence/v9_0/spectre/v9_0_2/lpmos/models/res/rctdn.scs
Reading file:  /home/saul/pkg/xfab/XKIT/xh018/cadence/v9_0/spectre/v9_0_2/lpmos/models/res/rctdp.scs
Reading file:  /home/saul/pkg/xfab/XKIT/xh018/cadence/v9_0/spectre/v9_0_2/lpmos/models/res/rctp1.scs
Reading file:  /home/saul/pkg/xfab/XKIT/xh018/cadence/v9_0/spectre/v9_0_2/lpmos/models/res/rsildn.scs
Reading file:  /home/saul/pkg/xfab/XKIT/xh018/cadence/v9_0/spectre/v9_0_2/lpmos/models/res/rsildp.scs
Reading file:  /home/saul/pkg/xfab/XKIT/xh018/cadence/v9_0/spectre/v9_0_2/lpmos/models/res/rsilnp1.scs
Reading file:  /home/saul/pkg/xfab/XKIT/xh018/cadence/v9_0/spectre/v9_0_2/lpmos/models/res/rsilpp1.scs
Reading file:  /home/saul/pkg/xfab/XKIT/xh018/cadence/v9_0/spectre/v9_0_2/lpmos/models/res/rsbdn.scs
Reading file:  /home/saul/pkg/xfab/XKIT/xh018/cadence/v9_0/spectre/v9_0_2/lpmos/models/res/rsbdp.scs
Reading file:  /home/saul/pkg/xfab/XKIT/xh018/cadence/v9_0/spectre/v9_0_2/lpmos/models/res/rsbdn3.scs
Reading file:  /home/saul/pkg/xfab/XKIT/xh018/cadence/v9_0/spectre/v9_0_2/lpmos/models/res/rsbdp3.scs
Reading file:  /home/saul/pkg/xfab/XKIT/xh018/cadence/v9_0/spectre/v9_0_2/lpmos/models/res/rsbnp1.scs
Reading file:  /home/saul/pkg/xfab/XKIT/xh018/cadence/v9_0/spectre/v9_0_2/lpmos/models/res/rsbpp1.scs
Reading file:  /home/saul/pkg/xfab/XKIT/xh018/cadence/v9_0/spectre/v9_0_2/lpmos/models/res/rsbpp1k1.scs
Reading file:  /home/saul/pkg/xfab/XKIT/xh018/cadence/v9_0/spectre/v9_0_2/lpmos/models/res/rm1.scs
Reading file:  /home/saul/pkg/xfab/XKIT/xh018/cadence/v9_0/spectre/v9_0_2/lpmos/models/res/rm2.scs
Reading file:  /home/saul/pkg/xfab/XKIT/xh018/cadence/v9_0/spectre/v9_0_2/lpmos/models/res/rm3.scs
Reading file:  /home/saul/pkg/xfab/XKIT/xh018/cadence/v9_0/spectre/v9_0_2/lpmos/models/res/rm4.scs
Reading file:  /home/saul/pkg/xfab/XKIT/xh018/cadence/v9_0/spectre/v9_0_2/lpmos/models/res/rm5.scs
Reading file:  /home/saul/pkg/xfab/XKIT/xh018/cadence/v9_0/spectre/v9_0_2/lpmos/models/res/rmtp.scs
Reading file:  /home/saul/pkg/xfab/XKIT/xh018/cadence/v9_0/spectre/v9_0_2/lpmos/models/res/rmtpl.scs
Reading file:  /home/saul/pkg/xfab/XKIT/xh018/cadence/v9_0/spectre/v9_0_2/lpmos/models/res/pfuse.scs
Reading file:  /home/saul/pkg/xfab/XKIT/xh018/cadence/v9_0/spectre/v9_0_2/lpmos/models/res/s_res.scs
Time for NDB Parsing: CPU = 189.043 ms, elapsed = 751.044 ms.
Time accumulated: CPU = 233.84 ms, elapsed = 751.046 ms.
Peak resident memory used = 117 Mbytes.

Time for Elaboration: CPU = 11.445 ms, elapsed = 11.384 ms.
Time accumulated: CPU = 245.363 ms, elapsed = 762.506 ms.
Peak resident memory used = 125 Mbytes.


Notice from spectre during hierarchy flattening.
    The value 'psf' specified for the 'checklimitdest' option will no longer be supported in future releases. Use 'spectre -h' to see other recommended values for the 'checklimitdest' option.


Time for EDB Visiting: CPU = 538 us, elapsed = 538.111 us.
Time accumulated: CPU = 245.984 ms, elapsed = 763.125 ms.
Peak resident memory used = 126 Mbytes.


Notice from spectre during initial setup.
    Multithreading is disabled due to the size of the design being too small.


Global user options:
         psfversion = 1.4.0
            vabstol = 1e-06
            iabstol = 1e-12
               temp = 27
               gmin = 1e-12
             rforce = 1
           maxnotes = 5
           maxwarns = 5
             digits = 5
               cols = 80
             pivrel = 0.001
           sensfile = ../psf/sens.output
     checklimitdest = psf
               save = allpub
             reltol = 0.001
               tnom = 27
             scalem = 1
              scale = 1

Scoped user options:

Circuit inventory:
              nodes 6
            bsim3v3 1     
          capacitor 2     
             iprobe 1     
            isource 2     
           resistor 2     
               vcvs 1     
            vsource 1     

Analysis and control statement inventory:
                 ac 1     
               info 6     

Output statements:
             .probe 0     
           .measure 0     
               save 1     


Notice from spectre during initial setup.
    APS enabled.

Time for parsing: CPU = 2.899 ms, elapsed = 12.2201 ms.
Time accumulated: CPU = 248.942 ms, elapsed = 775.404 ms.
Peak resident memory used = 128 Mbytes.

~~~~~~~~~~~~~~~~~~~~~~
Pre-Simulation Summary
~~~~~~~~~~~~~~~~~~~~~~
   -   (APS) Multi-threading. The recommended number of threads is 1, consider adding +mt=1 on command line.
~~~~~~~~~~~~~~~~~~~~~~

*********************************************
AC Analysis `ac': freq = (100 mHz -> 100 GHz)
*********************************************

Notice from spectre during DC analysis, during AC analysis `ac'.
    Bad pivoting is found during DC analysis. Option dc_pivot_check=yes is recommended for possible improvement of convergence.

DC simulation time: CPU = 316 us, elapsed = 315.905 us.

Opening the PSF file ../psf/ac.ac ...
    ac: freq = 199.5 mHz    (2.5 %), step = 21.7 mHz     (417 m%)
    ac: freq = 223.9 mHz   (2.92 %), step = 24.35 mHz    (417 m%)
    ac: freq = 251.2 mHz   (3.33 %), step = 27.32 mHz    (417 m%)
    ac: freq = 281.8 mHz   (3.75 %), step = 30.65 mHz    (417 m%)
    ac: freq = 316.2 mHz   (4.17 %), step = 34.39 mHz    (417 m%)
    ac: freq = 354.8 mHz   (4.58 %), step = 38.59 mHz    (417 m%)
    ac: freq = 398.1 mHz      (5 %), step = 43.29 mHz    (417 m%)
    ac: freq = 446.7 mHz   (5.42 %), step = 48.58 mHz    (417 m%)
    ac: freq = 501.2 mHz   (5.83 %), step = 54.5 mHz     (417 m%)
    ac: freq = 562.3 mHz   (6.25 %), step = 61.15 mHz    (417 m%)
    ac: freq = 631 mHz     (6.67 %), step = 68.62 mHz    (417 m%)
    ac: freq = 707.9 mHz   (7.08 %), step = 76.99 mHz    (417 m%)
    ac: freq = 794.3 mHz    (7.5 %), step = 86.38 mHz    (417 m%)
    ac: freq = 891.3 mHz   (7.92 %), step = 96.92 mHz    (417 m%)
    ac: freq = 1 Hz        (8.33 %), step = 108.7 mHz    (417 m%)
    ac: freq = 1.122 Hz    (8.75 %), step = 122 mHz      (417 m%)
    ac: freq = 1.259 Hz    (9.17 %), step = 136.9 mHz    (417 m%)
    ac: freq = 1.413 Hz    (9.58 %), step = 153.6 mHz    (417 m%)
    ac: freq = 1.585 Hz      (10 %), step = 172.4 mHz    (417 m%)
    ac: freq = 1.778 Hz    (10.4 %), step = 193.4 mHz    (417 m%)
    ac: freq = 1.995 Hz    (10.8 %), step = 217 mHz      (417 m%)
    ac: freq = 2.239 Hz    (11.2 %), step = 243.5 mHz    (417 m%)
    ac: freq = 2.512 Hz    (11.7 %), step = 273.2 mHz    (417 m%)
    ac: freq = 2.818 Hz    (12.1 %), step = 306.5 mHz    (417 m%)
    ac: freq = 3.162 Hz    (12.5 %), step = 343.9 mHz    (417 m%)
    ac: freq = 3.548 Hz    (12.9 %), step = 385.9 mHz    (417 m%)
    ac: freq = 3.981 Hz    (13.3 %), step = 432.9 mHz    (417 m%)
    ac: freq = 4.467 Hz    (13.8 %), step = 485.8 mHz    (417 m%)
    ac: freq = 5.012 Hz    (14.2 %), step = 545 mHz      (417 m%)
    ac: freq = 5.623 Hz    (14.6 %), step = 611.5 mHz    (417 m%)
    ac: freq = 6.31 Hz       (15 %), step = 686.2 mHz    (417 m%)
    ac: freq = 7.079 Hz    (15.4 %), step = 769.9 mHz    (417 m%)
    ac: freq = 7.943 Hz    (15.8 %), step = 863.8 mHz    (417 m%)
    ac: freq = 8.913 Hz    (16.2 %), step = 969.2 mHz    (417 m%)
    ac: freq = 10 Hz       (16.7 %), step = 1.087 Hz     (417 m%)
    ac: freq = 11.22 Hz    (17.1 %), step = 1.22 Hz      (417 m%)
    ac: freq = 12.59 Hz    (17.5 %), step = 1.369 Hz     (417 m%)
    ac: freq = 14.13 Hz    (17.9 %), step = 1.536 Hz     (417 m%)
    ac: freq = 15.85 Hz    (18.3 %), step = 1.724 Hz     (417 m%)
    ac: freq = 17.78 Hz    (18.8 %), step = 1.934 Hz     (417 m%)
    ac: freq = 19.95 Hz    (19.2 %), step = 2.17 Hz      (417 m%)
    ac: freq = 22.39 Hz    (19.6 %), step = 2.435 Hz     (417 m%)
    ac: freq = 25.12 Hz      (20 %), step = 2.732 Hz     (417 m%)
    ac: freq = 28.18 Hz    (20.4 %), step = 3.065 Hz     (417 m%)
    ac: freq = 31.62 Hz    (20.8 %), step = 3.439 Hz     (417 m%)
    ac: freq = 35.48 Hz    (21.2 %), step = 3.859 Hz     (417 m%)
    ac: freq = 39.81 Hz    (21.7 %), step = 4.329 Hz     (417 m%)
    ac: freq = 44.67 Hz    (22.1 %), step = 4.858 Hz     (417 m%)
    ac: freq = 50.12 Hz    (22.5 %), step = 5.45 Hz      (417 m%)
    ac: freq = 56.23 Hz    (22.9 %), step = 6.115 Hz     (417 m%)
    ac: freq = 63.1 Hz     (23.3 %), step = 6.862 Hz     (417 m%)
    ac: freq = 70.79 Hz    (23.8 %), step = 7.699 Hz     (417 m%)
    ac: freq = 79.43 Hz    (24.2 %), step = 8.638 Hz     (417 m%)
    ac: freq = 89.13 Hz    (24.6 %), step = 9.692 Hz     (417 m%)
    ac: freq = 100 Hz        (25 %), step = 10.87 Hz     (417 m%)
    ac: freq = 112.2 Hz    (25.4 %), step = 12.2 Hz      (417 m%)
    ac: freq = 125.9 Hz    (25.8 %), step = 13.69 Hz     (417 m%)
    ac: freq = 141.3 Hz    (26.2 %), step = 15.36 Hz     (417 m%)
    ac: freq = 158.5 Hz    (26.7 %), step = 17.24 Hz     (417 m%)
    ac: freq = 177.8 Hz    (27.1 %), step = 19.34 Hz     (417 m%)
    ac: freq = 199.5 Hz    (27.5 %), step = 21.7 Hz      (417 m%)
    ac: freq = 223.9 Hz    (27.9 %), step = 24.35 Hz     (417 m%)
    ac: freq = 251.2 Hz    (28.3 %), step = 27.32 Hz     (417 m%)
    ac: freq = 281.8 Hz    (28.7 %), step = 30.65 Hz     (417 m%)
    ac: freq = 316.2 Hz    (29.2 %), step = 34.39 Hz     (417 m%)
    ac: freq = 354.8 Hz    (29.6 %), step = 38.59 Hz     (417 m%)
    ac: freq = 398.1 Hz      (30 %), step = 43.29 Hz     (417 m%)
    ac: freq = 446.7 Hz    (30.4 %), step = 48.58 Hz     (417 m%)
    ac: freq = 501.2 Hz    (30.8 %), step = 54.5 Hz      (417 m%)
    ac: freq = 562.3 Hz    (31.2 %), step = 61.15 Hz     (417 m%)
    ac: freq = 631 Hz      (31.7 %), step = 68.62 Hz     (417 m%)
    ac: freq = 707.9 Hz    (32.1 %), step = 76.99 Hz     (417 m%)
    ac: freq = 794.3 Hz    (32.5 %), step = 86.38 Hz     (417 m%)
    ac: freq = 891.3 Hz    (32.9 %), step = 96.92 Hz     (417 m%)
    ac: freq = 1 kHz       (33.3 %), step = 108.7 Hz     (417 m%)
    ac: freq = 1.122 kHz   (33.8 %), step = 122 Hz       (417 m%)
    ac: freq = 1.259 kHz   (34.2 %), step = 136.9 Hz     (417 m%)
    ac: freq = 1.413 kHz   (34.6 %), step = 153.6 Hz     (417 m%)
    ac: freq = 1.585 kHz     (35 %), step = 172.4 Hz     (417 m%)
    ac: freq = 1.778 kHz   (35.4 %), step = 193.4 Hz     (417 m%)
    ac: freq = 1.995 kHz   (35.8 %), step = 217 Hz       (417 m%)
    ac: freq = 2.239 kHz   (36.2 %), step = 243.5 Hz     (417 m%)
    ac: freq = 2.512 kHz   (36.7 %), step = 273.2 Hz     (417 m%)
    ac: freq = 2.818 kHz   (37.1 %), step = 306.5 Hz     (417 m%)
    ac: freq = 3.162 kHz   (37.5 %), step = 343.9 Hz     (417 m%)
    ac: freq = 3.548 kHz   (37.9 %), step = 385.9 Hz     (417 m%)
    ac: freq = 3.981 kHz   (38.3 %), step = 432.9 Hz     (417 m%)
    ac: freq = 4.467 kHz   (38.8 %), step = 485.8 Hz     (417 m%)
    ac: freq = 5.012 kHz   (39.2 %), step = 545 Hz       (417 m%)
    ac: freq = 5.623 kHz   (39.6 %), step = 611.5 Hz     (417 m%)
    ac: freq = 6.31 kHz      (40 %), step = 686.2 Hz     (417 m%)
    ac: freq = 7.079 kHz   (40.4 %), step = 769.9 Hz     (417 m%)
    ac: freq = 7.943 kHz   (40.8 %), step = 863.8 Hz     (417 m%)
    ac: freq = 8.913 kHz   (41.2 %), step = 969.2 Hz     (417 m%)
    ac: freq = 10 kHz      (41.7 %), step = 1.087 kHz    (417 m%)
    ac: freq = 11.22 kHz   (42.1 %), step = 1.22 kHz     (417 m%)
    ac: freq = 12.59 kHz   (42.5 %), step = 1.369 kHz    (417 m%)
    ac: freq = 14.13 kHz   (42.9 %), step = 1.536 kHz    (417 m%)
    ac: freq = 15.85 kHz   (43.3 %), step = 1.724 kHz    (417 m%)
    ac: freq = 17.78 kHz   (43.8 %), step = 1.934 kHz    (417 m%)
    ac: freq = 19.95 kHz   (44.2 %), step = 2.17 kHz     (417 m%)
    ac: freq = 22.39 kHz   (44.6 %), step = 2.435 kHz    (417 m%)
    ac: freq = 25.12 kHz     (45 %), step = 2.732 kHz    (417 m%)
    ac: freq = 28.18 kHz   (45.4 %), step = 3.065 kHz    (417 m%)
    ac: freq = 31.62 kHz   (45.8 %), step = 3.439 kHz    (417 m%)
    ac: freq = 35.48 kHz   (46.2 %), step = 3.859 kHz    (417 m%)
    ac: freq = 39.81 kHz   (46.7 %), step = 4.329 kHz    (417 m%)
    ac: freq = 44.67 kHz   (47.1 %), step = 4.858 kHz    (417 m%)
    ac: freq = 50.12 kHz   (47.5 %), step = 5.45 kHz     (417 m%)
    ac: freq = 56.23 kHz   (47.9 %), step = 6.115 kHz    (417 m%)
    ac: freq = 63.1 kHz    (48.3 %), step = 6.862 kHz    (417 m%)
    ac: freq = 70.79 kHz   (48.8 %), step = 7.699 kHz    (417 m%)
    ac: freq = 79.43 kHz   (49.2 %), step = 8.638 kHz    (417 m%)
    ac: freq = 89.13 kHz   (49.6 %), step = 9.692 kHz    (417 m%)
    ac: freq = 100 kHz       (50 %), step = 10.87 kHz    (417 m%)
    ac: freq = 112.2 kHz   (50.4 %), step = 12.2 kHz     (417 m%)
    ac: freq = 125.9 kHz   (50.8 %), step = 13.69 kHz    (417 m%)
    ac: freq = 141.3 kHz   (51.2 %), step = 15.36 kHz    (417 m%)
    ac: freq = 158.5 kHz   (51.7 %), step = 17.24 kHz    (417 m%)
    ac: freq = 177.8 kHz   (52.1 %), step = 19.34 kHz    (417 m%)
    ac: freq = 199.5 kHz   (52.5 %), step = 21.7 kHz     (417 m%)
    ac: freq = 223.9 kHz   (52.9 %), step = 24.35 kHz    (417 m%)
    ac: freq = 251.2 kHz   (53.3 %), step = 27.32 kHz    (417 m%)
    ac: freq = 281.8 kHz   (53.8 %), step = 30.65 kHz    (417 m%)
    ac: freq = 316.2 kHz   (54.2 %), step = 34.39 kHz    (417 m%)
    ac: freq = 354.8 kHz   (54.6 %), step = 38.59 kHz    (417 m%)
    ac: freq = 398.1 kHz     (55 %), step = 43.29 kHz    (417 m%)
    ac: freq = 446.7 kHz   (55.4 %), step = 48.58 kHz    (417 m%)
    ac: freq = 501.2 kHz   (55.8 %), step = 54.5 kHz     (417 m%)
    ac: freq = 562.3 kHz   (56.2 %), step = 61.15 kHz    (417 m%)
    ac: freq = 631 kHz     (56.7 %), step = 68.62 kHz    (417 m%)
    ac: freq = 707.9 kHz   (57.1 %), step = 76.99 kHz    (417 m%)
    ac: freq = 794.3 kHz   (57.5 %), step = 86.38 kHz    (417 m%)
    ac: freq = 891.3 kHz   (57.9 %), step = 96.92 kHz    (417 m%)
    ac: freq = 1 MHz       (58.3 %), step = 108.7 kHz    (417 m%)
    ac: freq = 1.122 MHz   (58.8 %), step = 122 kHz      (417 m%)
    ac: freq = 1.259 MHz   (59.2 %), step = 136.9 kHz    (417 m%)
    ac: freq = 1.413 MHz   (59.6 %), step = 153.6 kHz    (417 m%)
    ac: freq = 1.585 MHz     (60 %), step = 172.4 kHz    (417 m%)
    ac: freq = 1.778 MHz   (60.4 %), step = 193.4 kHz    (417 m%)
    ac: freq = 1.995 MHz   (60.8 %), step = 217 kHz      (417 m%)
    ac: freq = 2.239 MHz   (61.3 %), step = 243.5 kHz    (417 m%)
    ac: freq = 2.512 MHz   (61.7 %), step = 273.2 kHz    (417 m%)
    ac: freq = 2.818 MHz   (62.1 %), step = 306.5 kHz    (417 m%)
    ac: freq = 3.162 MHz   (62.5 %), step = 343.9 kHz    (417 m%)
    ac: freq = 3.548 MHz   (62.9 %), step = 385.9 kHz    (417 m%)
    ac: freq = 3.981 MHz   (63.3 %), step = 432.9 kHz    (417 m%)
    ac: freq = 4.467 MHz   (63.7 %), step = 485.8 kHz    (417 m%)
    ac: freq = 5.012 MHz   (64.2 %), step = 545 kHz      (417 m%)
    ac: freq = 5.623 MHz   (64.6 %), step = 611.5 kHz    (417 m%)
    ac: freq = 6.31 MHz      (65 %), step = 686.2 kHz    (417 m%)
    ac: freq = 7.079 MHz   (65.4 %), step = 769.9 kHz    (417 m%)
    ac: freq = 7.943 MHz   (65.8 %), step = 863.8 kHz    (417 m%)
    ac: freq = 8.913 MHz   (66.2 %), step = 969.2 kHz    (417 m%)
    ac: freq = 10 MHz      (66.7 %), step = 1.087 MHz    (417 m%)
    ac: freq = 11.22 MHz   (67.1 %), step = 1.22 MHz     (417 m%)
    ac: freq = 12.59 MHz   (67.5 %), step = 1.369 MHz    (417 m%)
    ac: freq = 14.13 MHz   (67.9 %), step = 1.536 MHz    (417 m%)
    ac: freq = 15.85 MHz   (68.3 %), step = 1.724 MHz    (417 m%)
    ac: freq = 17.78 MHz   (68.8 %), step = 1.934 MHz    (417 m%)
    ac: freq = 19.95 MHz   (69.2 %), step = 2.17 MHz     (417 m%)
    ac: freq = 22.39 MHz   (69.6 %), step = 2.435 MHz    (417 m%)
    ac: freq = 25.12 MHz     (70 %), step = 2.732 MHz    (417 m%)
    ac: freq = 28.18 MHz   (70.4 %), step = 3.065 MHz    (417 m%)
    ac: freq = 31.62 MHz   (70.8 %), step = 3.439 MHz    (417 m%)
    ac: freq = 35.48 MHz   (71.2 %), step = 3.859 MHz    (417 m%)
    ac: freq = 39.81 MHz   (71.7 %), step = 4.329 MHz    (417 m%)
    ac: freq = 44.67 MHz   (72.1 %), step = 4.858 MHz    (417 m%)
    ac: freq = 50.12 MHz   (72.5 %), step = 5.45 MHz     (417 m%)
    ac: freq = 56.23 MHz   (72.9 %), step = 6.115 MHz    (417 m%)
    ac: freq = 63.1 MHz    (73.3 %), step = 6.862 MHz    (417 m%)
    ac: freq = 70.79 MHz   (73.8 %), step = 7.699 MHz    (417 m%)
    ac: freq = 79.43 MHz   (74.2 %), step = 8.638 MHz    (417 m%)
    ac: freq = 89.13 MHz   (74.6 %), step = 9.692 MHz    (417 m%)
    ac: freq = 100 MHz       (75 %), step = 10.87 MHz    (417 m%)
    ac: freq = 112.2 MHz   (75.4 %), step = 12.2 MHz     (417 m%)
    ac: freq = 125.9 MHz   (75.8 %), step = 13.69 MHz    (417 m%)
    ac: freq = 141.3 MHz   (76.2 %), step = 15.36 MHz    (417 m%)
    ac: freq = 158.5 MHz   (76.7 %), step = 17.24 MHz    (417 m%)
    ac: freq = 177.8 MHz   (77.1 %), step = 19.34 MHz    (417 m%)
    ac: freq = 199.5 MHz   (77.5 %), step = 21.7 MHz     (417 m%)
    ac: freq = 223.9 MHz   (77.9 %), step = 24.35 MHz    (417 m%)
    ac: freq = 251.2 MHz   (78.3 %), step = 27.32 MHz    (417 m%)
    ac: freq = 281.8 MHz   (78.8 %), step = 30.65 MHz    (417 m%)
    ac: freq = 316.2 MHz   (79.2 %), step = 34.39 MHz    (417 m%)
    ac: freq = 354.8 MHz   (79.6 %), step = 38.59 MHz    (417 m%)
    ac: freq = 398.1 MHz     (80 %), step = 43.29 MHz    (417 m%)
    ac: freq = 446.7 MHz   (80.4 %), step = 48.58 MHz    (417 m%)
    ac: freq = 501.2 MHz   (80.8 %), step = 54.5 MHz     (417 m%)
    ac: freq = 562.3 MHz   (81.2 %), step = 61.15 MHz    (417 m%)
    ac: freq = 631 MHz     (81.7 %), step = 68.62 MHz    (417 m%)
    ac: freq = 707.9 MHz   (82.1 %), step = 76.99 MHz    (417 m%)
    ac: freq = 794.3 MHz   (82.5 %), step = 86.38 MHz    (417 m%)
    ac: freq = 891.3 MHz   (82.9 %), step = 96.92 MHz    (417 m%)
    ac: freq = 1 GHz       (83.3 %), step = 108.7 MHz    (417 m%)
    ac: freq = 1.122 GHz   (83.8 %), step = 122 MHz      (417 m%)
    ac: freq = 1.259 GHz   (84.2 %), step = 136.9 MHz    (417 m%)
    ac: freq = 1.413 GHz   (84.6 %), step = 153.6 MHz    (417 m%)
    ac: freq = 1.585 GHz     (85 %), step = 172.4 MHz    (417 m%)
    ac: freq = 1.778 GHz   (85.4 %), step = 193.4 MHz    (417 m%)
    ac: freq = 1.995 GHz   (85.8 %), step = 217 MHz      (417 m%)
    ac: freq = 2.239 GHz   (86.2 %), step = 243.5 MHz    (417 m%)
    ac: freq = 2.512 GHz   (86.7 %), step = 273.2 MHz    (417 m%)
    ac: freq = 2.818 GHz   (87.1 %), step = 306.5 MHz    (417 m%)
    ac: freq = 3.162 GHz   (87.5 %), step = 343.9 MHz    (417 m%)
    ac: freq = 3.548 GHz   (87.9 %), step = 385.9 MHz    (417 m%)
    ac: freq = 3.981 GHz   (88.3 %), step = 432.9 MHz    (417 m%)
    ac: freq = 4.467 GHz   (88.8 %), step = 485.8 MHz    (417 m%)
    ac: freq = 5.012 GHz   (89.2 %), step = 545 MHz      (417 m%)
    ac: freq = 5.623 GHz   (89.6 %), step = 611.5 MHz    (417 m%)
    ac: freq = 6.31 GHz      (90 %), step = 686.2 MHz    (417 m%)
    ac: freq = 7.079 GHz   (90.4 %), step = 769.9 MHz    (417 m%)
    ac: freq = 7.943 GHz   (90.8 %), step = 863.8 MHz    (417 m%)
    ac: freq = 8.913 GHz   (91.2 %), step = 969.2 MHz    (417 m%)
    ac: freq = 10 GHz      (91.7 %), step = 1.087 GHz    (417 m%)
    ac: freq = 11.22 GHz   (92.1 %), step = 1.22 GHz     (417 m%)
    ac: freq = 12.59 GHz   (92.5 %), step = 1.369 GHz    (417 m%)
    ac: freq = 14.13 GHz   (92.9 %), step = 1.536 GHz    (417 m%)
    ac: freq = 15.85 GHz   (93.3 %), step = 1.724 GHz    (417 m%)
    ac: freq = 17.78 GHz   (93.8 %), step = 1.934 GHz    (417 m%)
    ac: freq = 19.95 GHz   (94.2 %), step = 2.17 GHz     (417 m%)
    ac: freq = 22.39 GHz   (94.6 %), step = 2.435 GHz    (417 m%)
    ac: freq = 25.12 GHz     (95 %), step = 2.732 GHz    (417 m%)
    ac: freq = 28.18 GHz   (95.4 %), step = 3.065 GHz    (417 m%)
    ac: freq = 31.62 GHz   (95.8 %), step = 3.439 GHz    (417 m%)
    ac: freq = 35.48 GHz   (96.2 %), step = 3.859 GHz    (417 m%)
    ac: freq = 39.81 GHz   (96.7 %), step = 4.329 GHz    (417 m%)
    ac: freq = 44.67 GHz   (97.1 %), step = 4.858 GHz    (417 m%)
    ac: freq = 50.12 GHz   (97.5 %), step = 5.45 GHz     (417 m%)
    ac: freq = 56.23 GHz   (97.9 %), step = 6.115 GHz    (417 m%)
    ac: freq = 63.1 GHz    (98.3 %), step = 6.862 GHz    (417 m%)
    ac: freq = 70.79 GHz   (98.8 %), step = 7.699 GHz    (417 m%)
    ac: freq = 79.43 GHz   (99.2 %), step = 8.638 GHz    (417 m%)
    ac: freq = 89.13 GHz   (99.6 %), step = 9.692 GHz    (417 m%)
    ac: freq = 100 GHz      (100 %), step = 10.87 GHz    (417 m%)
Accumulated DC solution time =            359.058 us.
Intrinsic ac analysis time =              7.77888 ms.
Total time required for ac analysis `ac': CPU = 4.999 ms, elapsed = 8.17084 ms, util. = 61.2%.
Time accumulated: CPU = 256.521 ms, elapsed = 786.156 ms.
Peak resident memory used = 130 Mbytes.

modelParameter: writing model parameter values to rawfile.

Opening the PSF file ../psf/modelParameter.info ...
element: writing instance parameter values to rawfile.

Opening the PSF file ../psf/element.info ...
outputParameter: writing output parameter values to rawfile.

Opening the PSF file ../psf/outputParameter.info ...
designParamVals: writing netlist parameters to rawfile.

Opening the PSFASCII file ../psf/designParamVals.info ...
primitives: writing primitives to rawfile.

Opening the PSFASCII file ../psf/primitives.info.primitives ...
subckts: writing subcircuits to rawfile.

Opening the PSFASCII file ../psf/subckts.info.subckts ...
Licensing Information:
Lic Summary:
[07:28:25.366568] Cdslmd servers:3000@lic08.ug.kth.se
[07:28:25.366584] Feature usage summary:
[07:28:25.366584] Virtuoso_Multi_mode_Simulation


Aggregate audit (7:28:25 AM, Sat Feb 17, 2024):
Time used: CPU = 268 ms, elapsed = 822 ms, util. = 32.6%.
Time spent in licensing: elapsed = 822 ms, percentage of total = 100%.
Peak memory used = 132 Mbytes.
Simulation started at: 7:28:25 AM, Sat Feb 17, 2024, ended at: 7:28:25 AM, Sat Feb 17, 2024, with elapsed time (wall clock): 822 ms.
spectre completes with 0 errors, 0 warnings, and 5 notices.


********* LOG ENDS **************
**                             **
**                             **
********* LOG STARTS ************



Spectre (R) Circuit Simulator
Version 23.1.0.305.isr3 64bit -- 13 Nov 2023
Copyright (C) 1989-2023 Cadence Design Systems, Inc. All rights reserved worldwide. Cadence and Spectre are registered trademarks of Cadence Design Systems, Inc. All others are the property of their respective holders.

Includes RSA BSAFE(R) Cryptographic or Security Protocol Software from RSA Security, Inc.

User: saul   Host: phoenix   HostID: A0F02   PID: 30972
Memory  available: 13.5638 GB  physical: 16.6560 GB
Linux   : CentOS Linux release 7 (Core)
CPU Type: 11th Gen Intel(R) Core(TM) i7-11700K @ 3.60GHz
All processors running at 3600.0 MHz
        Socket: Processors
        0:       0,  1,  2,  3,  4,  5
        
System load averages (1min, 5min, 15min) : 0.5 %, 1.2 %, 0.8 %
HPC is enabled


Simulating `input.scs' on phoenix at 7:28:26 AM, Sat Feb 17, 2024 (process id: 30972).
Current working directory: /home/saul/projects/XH018_mixed_ji3/test_mix/virtuoso/Sim/CHARACTERIZATION/FT_3/adexl/results/data/Interactive.1/2/CHARACTERIZATION:FT_3:1/netlist
Command line:
    /pkg/cadence/installs/SPECTRE231/tools/bin/spectre -64 input.scs  \
        +escchars +log ../psf/spectre.out -format psfxl -raw ../psf  \
        +aps +mt +lqtimeout 900 -maxw 5 -maxn 5 -env ade -ahdllibdir  \
        /home/saul/projects/XH018_mixed_ji3/test_mix/virtuoso/Sim/CHARACTERIZATION/FT_3/adexl/results/data/Interactive.1/sharedData/Job4/ahdl/input.ahdlSimDB  \
        +logstatus

Licensing Information:
[07:28:26.512457] Configured Lic search path (22.01-s002): 3000@lic08.ug.kth.se

Licensing Information:
[07:28:26.200937] Periodic Lic check successful

Loading /pkg/cadence/installs/SPECTRE231/tools.lnx86/cmi/lib/64bit/5.0/libinfineon_sh.so ...
Loading /pkg/cadence/installs/SPECTRE231/tools.lnx86/cmi/lib/64bit/5.0/libphilips_I_sh.so ...
Loading /pkg/cadence/installs/SPECTRE231/tools.lnx86/cmi/lib/64bit/5.0/libphilips_sh.so ...
Loading /pkg/cadence/installs/SPECTRE231/tools.lnx86/cmi/lib/64bit/5.0/libsparam_sh.so ...
Loading /pkg/cadence/installs/SPECTRE231/tools.lnx86/cmi/lib/64bit/5.0/libstmodels_sh.so ...
Reading file:  /home/saul/projects/XH018_mixed_ji3/test_mix/virtuoso/Sim/CHARACTERIZATION/FT_3/adexl/results/data/Interactive.1/2/CHARACTERIZATION:FT_3:1/netlist/input.scs
Reading link:  /pkg/cadence
Reading file:  /home/saul/cadence/installs/SPECTRE231/tools.lnx86/spectre/etc/configs/spectre.cfg
Reading file:  /home/saul/pkg/xfab/XKIT/xh018/cadence/v9_0/spectre/v9_0_2/lpmos/config.scs
Reading file:  /home/saul/pkg/xfab/XKIT/xh018/cadence/v9_0/spectre/v9_0_2/lpmos/param.scs
Reading file:  /home/saul/pkg/xfab/XKIT/xh018/cadence/v9_0/spectre/v9_0_2/lpmos/bip.scs
Reading file:  /home/saul/pkg/xfab/XKIT/xh018/cadence/v9_0/spectre/v9_0_2/lpmos/models/bip/tm_bip.scs
Reading file:  /home/saul/pkg/xfab/XKIT/xh018/cadence/v9_0/spectre/v9_0_2/lpmos/models/bip/qpva.scs
Reading file:  /home/saul/pkg/xfab/XKIT/xh018/cadence/v9_0/spectre/v9_0_2/lpmos/models/bip/qpvb.scs
Reading file:  /home/saul/pkg/xfab/XKIT/xh018/cadence/v9_0/spectre/v9_0_2/lpmos/models/bip/qpvc.scs
Reading file:  /home/saul/pkg/xfab/XKIT/xh018/cadence/v9_0/spectre/v9_0_2/lpmos/models/bip/qpva3.scs
Reading file:  /home/saul/pkg/xfab/XKIT/xh018/cadence/v9_0/spectre/v9_0_2/lpmos/models/bip/qpvb3.scs
Reading file:  /home/saul/pkg/xfab/XKIT/xh018/cadence/v9_0/spectre/v9_0_2/lpmos/models/bip/qpvc3.scs
Reading file:  /home/saul/pkg/xfab/XKIT/xh018/cadence/v9_0/spectre/v9_0_2/lpmos/models/bip/qnva.scs
Reading file:  /home/saul/pkg/xfab/XKIT/xh018/cadence/v9_0/spectre/v9_0_2/lpmos/models/bip/qnvb.scs
Reading file:  /home/saul/pkg/xfab/XKIT/xh018/cadence/v9_0/spectre/v9_0_2/lpmos/models/bip/qnvb_npn.scs
Reading file:  /home/saul/pkg/xfab/XKIT/xh018/cadence/v9_0/spectre/v9_0_2/lpmos/models/bip/qnvb_pnp.scs
Reading file:  /home/saul/pkg/xfab/XKIT/xh018/cadence/v9_0/spectre/v9_0_2/lpmos/models/bip/qnvc.scs
Reading file:  /home/saul/pkg/xfab/XKIT/xh018/cadence/v9_0/spectre/v9_0_2/lpmos/models/bip/qnvc_npn.scs
Reading file:  /home/saul/pkg/xfab/XKIT/xh018/cadence/v9_0/spectre/v9_0_2/lpmos/models/bip/qnvc_pnp.scs
Reading file:  /home/saul/pkg/xfab/XKIT/xh018/cadence/v9_0/spectre/v9_0_2/lpmos/models/bip/qpvhscr.scs
Reading file:  /home/saul/pkg/xfab/XKIT/xh018/cadence/v9_0/spectre/v9_0_2/lpmos/models/bip/qpvascr.scs
Reading file:  /home/saul/pkg/xfab/XKIT/xh018/cadence/v9_0/spectre/v9_0_2/lpmos/models/bip/qpvhbscr.scs
Reading file:  /home/saul/pkg/xfab/XKIT/xh018/cadence/v9_0/spectre/v9_0_2/lpmos/models/bip/qnvba.scs
Reading file:  /home/saul/pkg/xfab/XKIT/xh018/cadence/v9_0/spectre/v9_0_2/lpmos/models/bip/qnvba_npn.scs
Reading file:  /home/saul/pkg/xfab/XKIT/xh018/cadence/v9_0/spectre/v9_0_2/lpmos/models/bip/qnvba_pnp.scs
Reading file:  /home/saul/pkg/xfab/XKIT/xh018/cadence/v9_0/spectre/v9_0_2/lpmos/models/bip/qnvca.scs
Reading file:  /home/saul/pkg/xfab/XKIT/xh018/cadence/v9_0/spectre/v9_0_2/lpmos/models/bip/qnvca_npn.scs
Reading file:  /home/saul/pkg/xfab/XKIT/xh018/cadence/v9_0/spectre/v9_0_2/lpmos/models/bip/qnvca_pnp.scs
Reading file:  /home/saul/pkg/xfab/XKIT/xh018/cadence/v9_0/spectre/v9_0_2/lpmos/models/bip/qpv_pa.scs
Reading file:  /home/saul/pkg/xfab/XKIT/xh018/cadence/v9_0/spectre/v9_0_2/lpmos/models/bip/qpv_pb.scs
Reading file:  /home/saul/pkg/xfab/XKIT/xh018/cadence/v9_0/spectre/v9_0_2/lpmos/models/bip/qpv_pc.scs
Reading file:  /home/saul/pkg/xfab/XKIT/xh018/cadence/v9_0/spectre/v9_0_2/lpmos/models/bip/qpv_pd.scs
Reading file:  /home/saul/pkg/xfab/XKIT/xh018/cadence/v9_0/spectre/v9_0_2/lpmos/models/bip/qpv_pe.scs
Reading file:  /home/saul/pkg/xfab/XKIT/xh018/cadence/v9_0/spectre/v9_0_2/lpmos/models/bip/qpv_pf.scs
Reading file:  /home/saul/pkg/xfab/XKIT/xh018/cadence/v9_0/spectre/v9_0_2/lpmos/models/bip/qpl_pa.scs
Reading file:  /home/saul/pkg/xfab/XKIT/xh018/cadence/v9_0/spectre/v9_0_2/lpmos/models/bip/qpl_pb.scs
Reading file:  /home/saul/pkg/xfab/XKIT/xh018/cadence/v9_0/spectre/v9_0_2/lpmos/models/bip/qpl_pc.scs
Reading file:  /home/saul/pkg/xfab/XKIT/xh018/cadence/v9_0/spectre/v9_0_2/lpmos/models/bip/qpl_pd.scs
Reading file:  /home/saul/pkg/xfab/XKIT/xh018/cadence/v9_0/spectre/v9_0_2/lpmos/models/bip/qpl_pe.scs
Reading file:  /home/saul/pkg/xfab/XKIT/xh018/cadence/v9_0/spectre/v9_0_2/lpmos/models/bip/qpl_pf.scs
Reading file:  /home/saul/pkg/xfab/XKIT/xh018/cadence/v9_0/spectre/v9_0_2/lpmos/models/bip/qnl_pa.scs
Reading file:  /home/saul/pkg/xfab/XKIT/xh018/cadence/v9_0/spectre/v9_0_2/lpmos/models/bip/qnl_pb.scs
Reading file:  /home/saul/pkg/xfab/XKIT/xh018/cadence/v9_0/spectre/v9_0_2/lpmos/models/bip/qnl_pc.scs
Reading file:  /home/saul/pkg/xfab/XKIT/xh018/cadence/v9_0/spectre/v9_0_2/lpmos/models/bip/qnl_pd.scs
Reading file:  /home/saul/pkg/xfab/XKIT/xh018/cadence/v9_0/spectre/v9_0_2/lpmos/models/bip/qnl_pe.scs
Reading file:  /home/saul/pkg/xfab/XKIT/xh018/cadence/v9_0/spectre/v9_0_2/lpmos/models/bip/qnl_pf.scs
Reading file:  /home/saul/pkg/xfab/XKIT/xh018/cadence/v9_0/spectre/v9_0_2/lpmos/cap.scs
Reading file:  /home/saul/pkg/xfab/XKIT/xh018/cadence/v9_0/spectre/v9_0_2/lpmos/models/cap/tm_cap.scs
Reading file:  /home/saul/pkg/xfab/XKIT/xh018/cadence/v9_0/spectre/v9_0_2/lpmos/models/cap/csandwt3.scs
Reading file:  /home/saul/pkg/xfab/XKIT/xh018/cadence/v9_0/spectre/v9_0_2/lpmos/models/cap/csandwt4.scs
Reading file:  /home/saul/pkg/xfab/XKIT/xh018/cadence/v9_0/spectre/v9_0_2/lpmos/models/cap/csandwt5.scs
Reading file:  /home/saul/pkg/xfab/XKIT/xh018/cadence/v9_0/spectre/v9_0_2/lpmos/models/cap/csf2p.scs
Reading file:  /home/saul/pkg/xfab/XKIT/xh018/cadence/v9_0/spectre/v9_0_2/lpmos/models/cap/csf3p.scs
Reading file:  /home/saul/pkg/xfab/XKIT/xh018/cadence/v9_0/spectre/v9_0_2/lpmos/models/cap/csf3.scs
Reading file:  /home/saul/pkg/xfab/XKIT/xh018/cadence/v9_0/spectre/v9_0_2/lpmos/models/cap/csf4.scs
Reading file:  /home/saul/pkg/xfab/XKIT/xh018/cadence/v9_0/spectre/v9_0_2/lpmos/models/cap/csf5.scs
Reading file:  /home/saul/pkg/xfab/XKIT/xh018/cadence/v9_0/spectre/v9_0_2/lpmos/models/cap/csft4.scs
Reading file:  /home/saul/pkg/xfab/XKIT/xh018/cadence/v9_0/spectre/v9_0_2/lpmos/models/cap/csft5.scs
Reading file:  /home/saul/pkg/xfab/XKIT/xh018/cadence/v9_0/spectre/v9_0_2/lpmos/models/cap/csft6.scs
Reading file:  /home/saul/pkg/xfab/XKIT/xh018/cadence/v9_0/spectre/v9_0_2/lpmos/models/cap/csf3a.scs
Reading file:  /home/saul/pkg/xfab/XKIT/xh018/cadence/v9_0/spectre/v9_0_2/lpmos/models/cap/csf4a.scs
Reading file:  /home/saul/pkg/xfab/XKIT/xh018/cadence/v9_0/spectre/v9_0_2/lpmos/models/cap/csf5a.scs
Reading file:  /home/saul/pkg/xfab/XKIT/xh018/cadence/v9_0/spectre/v9_0_2/lpmos/models/cap/csft4a.scs
Reading file:  /home/saul/pkg/xfab/XKIT/xh018/cadence/v9_0/spectre/v9_0_2/lpmos/models/cap/csft5a.scs
Reading file:  /home/saul/pkg/xfab/XKIT/xh018/cadence/v9_0/spectre/v9_0_2/lpmos/models/cap/csft6a.scs
Reading file:  /home/saul/pkg/xfab/XKIT/xh018/cadence/v9_0/spectre/v9_0_2/lpmos/models/cap/cif3a.scs
Reading file:  /home/saul/pkg/xfab/XKIT/xh018/cadence/v9_0/spectre/v9_0_2/lpmos/models/cap/cif4a.scs
Reading file:  /home/saul/pkg/xfab/XKIT/xh018/cadence/v9_0/spectre/v9_0_2/lpmos/models/cap/cif5a.scs
Reading file:  /home/saul/pkg/xfab/XKIT/xh018/cadence/v9_0/spectre/v9_0_2/lpmos/models/cap/cift4a.scs
Reading file:  /home/saul/pkg/xfab/XKIT/xh018/cadence/v9_0/spectre/v9_0_2/lpmos/models/cap/cift5a.scs
Reading file:  /home/saul/pkg/xfab/XKIT/xh018/cadence/v9_0/spectre/v9_0_2/lpmos/models/cap/cift6a.scs
Reading file:  /home/saul/pkg/xfab/XKIT/xh018/cadence/v9_0/spectre/v9_0_2/lpmos/models/cap/cmm3.scs
Reading file:  /home/saul/pkg/xfab/XKIT/xh018/cadence/v9_0/spectre/v9_0_2/lpmos/models/cap/cmm4t.scs
Reading file:  /home/saul/pkg/xfab/XKIT/xh018/cadence/v9_0/spectre/v9_0_2/lpmos/models/cap/cmm4.scs
Reading file:  /home/saul/pkg/xfab/XKIT/xh018/cadence/v9_0/spectre/v9_0_2/lpmos/models/cap/cmm5t.scs
Reading file:  /home/saul/pkg/xfab/XKIT/xh018/cadence/v9_0/spectre/v9_0_2/lpmos/models/cap/cmm6t.scs
Reading file:  /home/saul/pkg/xfab/XKIT/xh018/cadence/v9_0/spectre/v9_0_2/lpmos/models/cap/cdmm4.scs
Reading file:  /home/saul/pkg/xfab/XKIT/xh018/cadence/v9_0/spectre/v9_0_2/lpmos/models/cap/cdmm4t.scs
Reading file:  /home/saul/pkg/xfab/XKIT/xh018/cadence/v9_0/spectre/v9_0_2/lpmos/models/cap/ctmm5.scs
Reading file:  /home/saul/pkg/xfab/XKIT/xh018/cadence/v9_0/spectre/v9_0_2/lpmos/models/cap/ctmm5t.scs
Reading file:  /home/saul/pkg/xfab/XKIT/xh018/cadence/v9_0/spectre/v9_0_2/lpmos/models/cap/cmmh3.scs
Reading file:  /home/saul/pkg/xfab/XKIT/xh018/cadence/v9_0/spectre/v9_0_2/lpmos/models/cap/cmmh4t.scs
Reading file:  /home/saul/pkg/xfab/XKIT/xh018/cadence/v9_0/spectre/v9_0_2/lpmos/models/cap/cmmh4.scs
Reading file:  /home/saul/pkg/xfab/XKIT/xh018/cadence/v9_0/spectre/v9_0_2/lpmos/models/cap/cmmh5t.scs
Reading file:  /home/saul/pkg/xfab/XKIT/xh018/cadence/v9_0/spectre/v9_0_2/lpmos/models/cap/cmmh6t.scs
Reading file:  /home/saul/pkg/xfab/XKIT/xh018/cadence/v9_0/spectre/v9_0_2/lpmos/models/cap/cdmmh4.scs
Reading file:  /home/saul/pkg/xfab/XKIT/xh018/cadence/v9_0/spectre/v9_0_2/lpmos/models/cap/cdmmh4t.scs
Reading file:  /home/saul/pkg/xfab/XKIT/xh018/cadence/v9_0/spectre/v9_0_2/lpmos/models/cap/ctmmh5.scs
Reading file:  /home/saul/pkg/xfab/XKIT/xh018/cadence/v9_0/spectre/v9_0_2/lpmos/models/cap/ctmmh5t.scs
Reading file:  /home/saul/pkg/xfab/XKIT/xh018/cadence/v9_0/spectre/v9_0_2/lpmos/models/cap/mosvc.scs
Reading file:  /home/saul/pkg/xfab/XKIT/xh018/cadence/v9_0/spectre/v9_0_2/lpmos/models/cap/mosvc_pmos.scs
Reading file:  /home/saul/pkg/xfab/XKIT/xh018/cadence/v9_0/spectre/v9_0_2/lpmos/models/cap/mosvci.scs
Reading file:  /home/saul/pkg/xfab/XKIT/xh018/cadence/v9_0/spectre/v9_0_2/lpmos/models/cap/mosvci_nmos.scs
Reading file:  /home/saul/pkg/xfab/XKIT/xh018/cadence/v9_0/spectre/v9_0_2/lpmos/models/cap/mosvci_m.scs
Reading file:  /home/saul/pkg/xfab/XKIT/xh018/cadence/v9_0/spectre/v9_0_2/lpmos/models/cap/mosvc3.scs
Reading file:  /home/saul/pkg/xfab/XKIT/xh018/cadence/v9_0/spectre/v9_0_2/lpmos/models/cap/mosvc3_pmos.scs
Reading file:  /home/saul/pkg/xfab/XKIT/xh018/cadence/v9_0/spectre/v9_0_2/lpmos/models/cap/mosvc3i.scs
Reading file:  /home/saul/pkg/xfab/XKIT/xh018/cadence/v9_0/spectre/v9_0_2/lpmos/models/cap/mosvc3i_nmos.scs
Reading file:  /home/saul/pkg/xfab/XKIT/xh018/cadence/v9_0/spectre/v9_0_2/lpmos/models/cap/mosvc3i_m.scs
Reading file:  /home/saul/pkg/xfab/XKIT/xh018/cadence/v9_0/spectre/v9_0_2/lpmos/models/cap/cpod.scs
Reading file:  /home/saul/pkg/xfab/XKIT/xh018/cadence/v9_0/spectre/v9_0_2/lpmos/models/cap/cpod_i.scs
Reading file:  /home/saul/pkg/xfab/XKIT/xh018/cadence/v9_0/spectre/v9_0_2/lpmos/models/cap/cpodhv.scs
Reading file:  /home/saul/pkg/xfab/XKIT/xh018/cadence/v9_0/spectre/v9_0_2/lpmos/models/cap/cpodhv_i.scs
Reading file:  /home/saul/pkg/xfab/XKIT/xh018/cadence/v9_0/spectre/v9_0_2/lpmos/models/cap/cp1sub.scs
Reading file:  /home/saul/pkg/xfab/XKIT/xh018/cadence/v9_0/spectre/v9_0_2/lpmos/models/cap/cp1suba.scs
Reading file:  /home/saul/pkg/xfab/XKIT/xh018/cadence/v9_0/spectre/v9_0_2/lpmos/models/cap/cp1subp.scs
Reading file:  /home/saul/pkg/xfab/XKIT/xh018/cadence/v9_0/spectre/v9_0_2/lpmos/models/cap/tag_25v.scs
Reading file:  /home/saul/pkg/xfab/XKIT/xh018/cadence/v9_0/spectre/v9_0_2/lpmos/models/cap/tag_60v.scs
Reading file:  /home/saul/pkg/xfab/XKIT/xh018/cadence/v9_0/spectre/v9_0_2/lpmos/dio.scs
Reading file:  /home/saul/pkg/xfab/XKIT/xh018/cadence/v9_0/spectre/v9_0_2/lpmos/models/dio/tm_dio.scs
Reading file:  /home/saul/pkg/xfab/XKIT/xh018/cadence/v9_0/spectre/v9_0_2/lpmos/models/dio/dn.scs
Reading file:  /home/saul/pkg/xfab/XKIT/xh018/cadence/v9_0/spectre/v9_0_2/lpmos/models/dio/dp.scs
Reading file:  /home/saul/pkg/xfab/XKIT/xh018/cadence/v9_0/spectre/v9_0_2/lpmos/models/dio/dnw.scs
Reading file:  /home/saul/pkg/xfab/XKIT/xh018/cadence/v9_0/spectre/v9_0_2/lpmos/models/dio/dn3.scs
Reading file:  /home/saul/pkg/xfab/XKIT/xh018/cadence/v9_0/spectre/v9_0_2/lpmos/models/dio/dnn3.scs
Reading file:  /home/saul/pkg/xfab/XKIT/xh018/cadence/v9_0/spectre/v9_0_2/lpmos/models/dio/dp3.scs
Reading file:  /home/saul/pkg/xfab/XKIT/xh018/cadence/v9_0/spectre/v9_0_2/lpmos/models/dio/dnw3.scs
Reading file:  /home/saul/pkg/xfab/XKIT/xh018/cadence/v9_0/spectre/v9_0_2/lpmos/models/dio/ddnwmv.scs
Reading file:  /home/saul/pkg/xfab/XKIT/xh018/cadence/v9_0/spectre/v9_0_2/lpmos/models/dio/dpdnwmv.scs
Reading file:  /home/saul/pkg/xfab/XKIT/xh018/cadence/v9_0/spectre/v9_0_2/lpmos/models/dio/dipdnwmv.scs
Reading file:  /home/saul/pkg/xfab/XKIT/xh018/cadence/v9_0/spectre/v9_0_2/lpmos/models/dio/ddnw.scs
Reading file:  /home/saul/pkg/xfab/XKIT/xh018/cadence/v9_0/spectre/v9_0_2/lpmos/models/dio/dpdnw.scs
Reading file:  /home/saul/pkg/xfab/XKIT/xh018/cadence/v9_0/spectre/v9_0_2/lpmos/models/dio/dipdnw.scs
Reading file:  /home/saul/pkg/xfab/XKIT/xh018/cadence/v9_0/spectre/v9_0_2/lpmos/models/dio/dnhpw.scs
Reading file:  /home/saul/pkg/xfab/XKIT/xh018/cadence/v9_0/spectre/v9_0_2/lpmos/models/dio/dnhpwa.scs
Reading file:  /home/saul/pkg/xfab/XKIT/xh018/cadence/v9_0/spectre/v9_0_2/lpmos/models/dio/dphnw.scs
Reading file:  /home/saul/pkg/xfab/XKIT/xh018/cadence/v9_0/spectre/v9_0_2/lpmos/models/dio/dphnwa.scs
Reading file:  /home/saul/pkg/xfab/XKIT/xh018/cadence/v9_0/spectre/v9_0_2/lpmos/models/dio/dhpw.scs
Reading file:  /home/saul/pkg/xfab/XKIT/xh018/cadence/v9_0/spectre/v9_0_2/lpmos/models/dio/dhnw.scs
Reading file:  /home/saul/pkg/xfab/XKIT/xh018/cadence/v9_0/spectre/v9_0_2/lpmos/models/dio/dndf.scs
Reading file:  /home/saul/pkg/xfab/XKIT/xh018/cadence/v9_0/spectre/v9_0_2/lpmos/models/dio/dpdwhn.scs
Reading file:  /home/saul/pkg/xfab/XKIT/xh018/cadence/v9_0/spectre/v9_0_2/lpmos/models/dio/dwhn.scs
Reading file:  /home/saul/pkg/xfab/XKIT/xh018/cadence/v9_0/spectre/v9_0_2/lpmos/models/dio/dpwhn.scs
Reading file:  /home/saul/pkg/xfab/XKIT/xh018/cadence/v9_0/spectre/v9_0_2/lpmos/models/dio/dpndf.scs
Reading file:  /home/saul/pkg/xfab/XKIT/xh018/cadence/v9_0/spectre/v9_0_2/lpmos/models/dio/dpdddnw.scs
Reading file:  /home/saul/pkg/xfab/XKIT/xh018/cadence/v9_0/spectre/v9_0_2/lpmos/models/dio/ddpldnw.scs
Reading file:  /home/saul/pkg/xfab/XKIT/xh018/cadence/v9_0/spectre/v9_0_2/lpmos/models/dio/dn3dpl.scs
Reading file:  /home/saul/pkg/xfab/XKIT/xh018/cadence/v9_0/spectre/v9_0_2/lpmos/models/dio/dbn.scs
Reading file:  /home/saul/pkg/xfab/XKIT/xh018/cadence/v9_0/spectre/v9_0_2/lpmos/models/dio/dpol.scs
Reading file:  /home/saul/pkg/xfab/XKIT/xh018/cadence/v9_0/spectre/v9_0_2/lpmos/models/dio/dnpdd_scr.scs
Reading file:  /home/saul/pkg/xfab/XKIT/xh018/cadence/v9_0/spectre/v9_0_2/lpmos/models/dio/dpdd_scr.scs
Reading file:  /home/saul/pkg/xfab/XKIT/xh018/cadence/v9_0/spectre/v9_0_2/lpmos/models/dio/dsb.scs
Reading file:  /home/saul/pkg/xfab/XKIT/xh018/cadence/v9_0/spectre/v9_0_2/lpmos/models/dio/dsba.scs
Reading file:  /home/saul/pkg/xfab/XKIT/xh018/cadence/v9_0/spectre/v9_0_2/lpmos/models/dio/dsba_qp1.scs
Reading file:  /home/saul/pkg/xfab/XKIT/xh018/cadence/v9_0/spectre/v9_0_2/lpmos/models/dio/dnp20.scs
Reading file:  /home/saul/pkg/xfab/XKIT/xh018/cadence/v9_0/spectre/v9_0_2/lpmos/models/dio/dpp20.scs
Reading file:  /home/saul/pkg/xfab/XKIT/xh018/cadence/v9_0/spectre/v9_0_2/lpmos/models/dio/dn3sci.scs
Reading file:  /home/saul/pkg/xfab/XKIT/xh018/cadence/v9_0/spectre/v9_0_2/lpmos/models/dio/dscidnwmv.scs
Reading file:  /home/saul/pkg/xfab/XKIT/xh018/cadence/v9_0/spectre/v9_0_2/lpmos/mos.scs
Reading file:  /home/saul/pkg/xfab/XKIT/xh018/cadence/v9_0/spectre/v9_0_2/lpmos/models/mos/tm_mos.scs
Reading file:  /home/saul/pkg/xfab/XKIT/xh018/cadence/v9_0/spectre/v9_0_2/lpmos/models/mos/ne.scs
Reading file:  /home/saul/pkg/xfab/XKIT/xh018/cadence/v9_0/spectre/v9_0_2/lpmos/models/mos/nei.scs
Reading file:  /home/saul/pkg/xfab/XKIT/xh018/cadence/v9_0/spectre/v9_0_2/lpmos/models/mos/nei_6.scs
Reading file:  /home/saul/pkg/xfab/XKIT/xh018/cadence/v9_0/spectre/v9_0_2/lpmos/models/mos/nei_m_6.scs
Reading file:  /home/saul/pkg/xfab/XKIT/xh018/cadence/v9_0/spectre/v9_0_2/lpmos/models/mos/pe.scs
Reading file:  /home/saul/pkg/xfab/XKIT/xh018/cadence/v9_0/spectre/v9_0_2/lpmos/models/mos/pe_5.scs
Reading file:  /home/saul/pkg/xfab/XKIT/xh018/cadence/v9_0/spectre/v9_0_2/lpmos/models/mos/pei.scs
Reading file:  /home/saul/pkg/xfab/XKIT/xh018/cadence/v9_0/spectre/v9_0_2/lpmos/models/mos/pei_5.scs
Reading file:  /home/saul/pkg/xfab/XKIT/xh018/cadence/v9_0/spectre/v9_0_2/lpmos/models/mos/pei_m_5.scs
Reading file:  /home/saul/pkg/xfab/XKIT/xh018/cadence/v9_0/spectre/v9_0_2/lpmos/models/mos/nel.scs
Reading file:  /home/saul/pkg/xfab/XKIT/xh018/cadence/v9_0/spectre/v9_0_2/lpmos/models/mos/neli.scs
Reading file:  /home/saul/pkg/xfab/XKIT/xh018/cadence/v9_0/spectre/v9_0_2/lpmos/models/mos/neli_6.scs
Reading file:  /home/saul/pkg/xfab/XKIT/xh018/cadence/v9_0/spectre/v9_0_2/lpmos/models/mos/neli_m_6.scs
Reading file:  /home/saul/pkg/xfab/XKIT/xh018/cadence/v9_0/spectre/v9_0_2/lpmos/models/mos/pel.scs
Reading file:  /home/saul/pkg/xfab/XKIT/xh018/cadence/v9_0/spectre/v9_0_2/lpmos/models/mos/pel_5.scs
Reading file:  /home/saul/pkg/xfab/XKIT/xh018/cadence/v9_0/spectre/v9_0_2/lpmos/models/mos/peli.scs
Reading file:  /home/saul/pkg/xfab/XKIT/xh018/cadence/v9_0/spectre/v9_0_2/lpmos/models/mos/peli_5.scs
Reading file:  /home/saul/pkg/xfab/XKIT/xh018/cadence/v9_0/spectre/v9_0_2/lpmos/models/mos/peli_m_5.scs
Reading file:  /home/saul/pkg/xfab/XKIT/xh018/cadence/v9_0/spectre/v9_0_2/lpmos/models/mos/nn3.scs
Reading file:  /home/saul/pkg/xfab/XKIT/xh018/cadence/v9_0/spectre/v9_0_2/lpmos/models/mos/ne3.scs
Reading file:  /home/saul/pkg/xfab/XKIT/xh018/cadence/v9_0/spectre/v9_0_2/lpmos/models/mos/ne3i.scs
Reading file:  /home/saul/pkg/xfab/XKIT/xh018/cadence/v9_0/spectre/v9_0_2/lpmos/models/mos/ne3i_6.scs
Reading file:  /home/saul/pkg/xfab/XKIT/xh018/cadence/v9_0/spectre/v9_0_2/lpmos/models/mos/ne3i_m_6.scs
Reading file:  /home/saul/pkg/xfab/XKIT/xh018/cadence/v9_0/spectre/v9_0_2/lpmos/models/mos/pe3.scs
Reading file:  /home/saul/pkg/xfab/XKIT/xh018/cadence/v9_0/spectre/v9_0_2/lpmos/models/mos/pe3_5.scs
Reading file:  /home/saul/pkg/xfab/XKIT/xh018/cadence/v9_0/spectre/v9_0_2/lpmos/models/mos/pe3i.scs
Reading file:  /home/saul/pkg/xfab/XKIT/xh018/cadence/v9_0/spectre/v9_0_2/lpmos/models/mos/pe3i_5.scs
Reading file:  /home/saul/pkg/xfab/XKIT/xh018/cadence/v9_0/spectre/v9_0_2/lpmos/models/mos/pe3i_m_5.scs
Reading file:  /home/saul/pkg/xfab/XKIT/xh018/cadence/v9_0/spectre/v9_0_2/lpmos/models/mos/pe3ln.scs
Reading file:  /home/saul/pkg/xfab/XKIT/xh018/cadence/v9_0/spectre/v9_0_2/lpmos/models/mos/pe3ln_5.scs
Reading file:  /home/saul/pkg/xfab/XKIT/xh018/cadence/v9_0/spectre/v9_0_2/lpmos/models/mos/pe3lni.scs
Reading file:  /home/saul/pkg/xfab/XKIT/xh018/cadence/v9_0/spectre/v9_0_2/lpmos/models/mos/pe3lni_5.scs
Reading file:  /home/saul/pkg/xfab/XKIT/xh018/cadence/v9_0/spectre/v9_0_2/lpmos/models/mos/pe3lni_m_5.scs
Reading file:  /home/saul/pkg/xfab/XKIT/xh018/cadence/v9_0/spectre/v9_0_2/lpmos/models/mos/nd3.scs
Reading file:  /home/saul/pkg/xfab/XKIT/xh018/cadence/v9_0/spectre/v9_0_2/lpmos/models/mos/nd3_mos1.scs
Reading file:  /home/saul/pkg/xfab/XKIT/xh018/cadence/v9_0/spectre/v9_0_2/lpmos/models/mos/nd3_mos2.scs
Reading file:  /home/saul/pkg/xfab/XKIT/xh018/cadence/v9_0/spectre/v9_0_2/lpmos/models/mos/nd3i.scs
Reading file:  /home/saul/pkg/xfab/XKIT/xh018/cadence/v9_0/spectre/v9_0_2/lpmos/models/mos/nd3i_mos1.scs
Reading file:  /home/saul/pkg/xfab/XKIT/xh018/cadence/v9_0/spectre/v9_0_2/lpmos/models/mos/nd3i_mos2.scs
Reading file:  /home/saul/pkg/xfab/XKIT/xh018/cadence/v9_0/spectre/v9_0_2/lpmos/models/mos/nd3i_6.scs
Reading file:  /home/saul/pkg/xfab/XKIT/xh018/cadence/v9_0/spectre/v9_0_2/lpmos/models/mos/nd3i_m_6.scs
Reading file:  /home/saul/pkg/xfab/XKIT/xh018/cadence/v9_0/spectre/v9_0_2/lpmos/models/mos/nelna.scs
[...]
Reading file:  /home/saul/pkg/xfab/XKIT/xh018/cadence/v9_0/spectre/v9_0_2/lpmos/models/res/pfuse.scs
Reading file:  /home/saul/pkg/xfab/XKIT/xh018/cadence/v9_0/spectre/v9_0_2/lpmos/models/res/s_res.scs
Time for NDB Parsing: CPU = 256.186 ms, elapsed = 636.775 ms.
Time accumulated: CPU = 306.647 ms, elapsed = 636.778 ms.
Peak resident memory used = 113 Mbytes.

Time for Elaboration: CPU = 11.583 ms, elapsed = 11.533 ms.
Time accumulated: CPU = 318.305 ms, elapsed = 648.385 ms.
Peak resident memory used = 121 Mbytes.


Notice from spectre during hierarchy flattening.
    The value 'psf' specified for the 'checklimitdest' option will no longer be supported in future releases. Use 'spectre -h' to see other recommended values for the 'checklimitdest' option.


Time for EDB Visiting: CPU = 691 us, elapsed = 690.937 us.
Time accumulated: CPU = 319.086 ms, elapsed = 649.164 ms.
Peak resident memory used = 122 Mbytes.


Notice from spectre during initial setup.
    Multithreading is disabled due to the size of the design being too small.


Global user options:
         psfversion = 1.4.0
            vabstol = 1e-06
            iabstol = 1e-12
               temp = 27
               gmin = 1e-12
             rforce = 1
           maxnotes = 5
           maxwarns = 5
             digits = 5
               cols = 80
             pivrel = 0.001
           sensfile = ../psf/sens.output
     checklimitdest = psf
               save = allpub
             reltol = 0.001
               tnom = 27
             scalem = 1
              scale = 1

Scoped user options:

Circuit inventory:
              nodes 6
            bsim3v3 1     
          capacitor 2     
             iprobe 1     
            isource 2     
           resistor 2     
               vcvs 1     
            vsource 1     

Analysis and control statement inventory:
                 ac 1     
               info 6     

Output statements:
             .probe 0     
           .measure 0     
               save 1     


Notice from spectre during initial setup.
    APS enabled.

Time for parsing: CPU = 2.986 ms, elapsed = 13.402 ms.
Time accumulated: CPU = 322.136 ms, elapsed = 662.63 ms.
Peak resident memory used = 124 Mbytes.

~~~~~~~~~~~~~~~~~~~~~~
Pre-Simulation Summary
~~~~~~~~~~~~~~~~~~~~~~
   -   (APS) Multi-threading. The recommended number of threads is 1, consider adding +mt=1 on command line.
~~~~~~~~~~~~~~~~~~~~~~

*********************************************
AC Analysis `ac': freq = (100 mHz -> 100 GHz)
*********************************************

Notice from spectre during DC analysis, during AC analysis `ac'.
    Bad pivoting is found during DC analysis. Option dc_pivot_check=yes is recommended for possible improvement of convergence.

DC simulation time: CPU = 283 us, elapsed = 282.049 us.

Opening the PSF file ../psf/ac.ac ...
    ac: freq = 199.5 mHz    (2.5 %), step = 21.7 mHz     (417 m%)
    ac: freq = 223.9 mHz   (2.92 %), step = 24.35 mHz    (417 m%)
    ac: freq = 251.2 mHz   (3.33 %), step = 27.32 mHz    (417 m%)
    ac: freq = 281.8 mHz   (3.75 %), step = 30.65 mHz    (417 m%)
    ac: freq = 316.2 mHz   (4.17 %), step = 34.39 mHz    (417 m%)
    ac: freq = 354.8 mHz   (4.58 %), step = 38.59 mHz    (417 m%)
    ac: freq = 398.1 mHz      (5 %), step = 43.29 mHz    (417 m%)
    ac: freq = 446.7 mHz   (5.42 %), step = 48.58 mHz    (417 m%)
    ac: freq = 501.2 mHz   (5.83 %), step = 54.5 mHz     (417 m%)
    ac: freq = 562.3 mHz   (6.25 %), step = 61.15 mHz    (417 m%)
    ac: freq = 631 mHz     (6.67 %), step = 68.62 mHz    (417 m%)
    ac: freq = 707.9 mHz   (7.08 %), step = 76.99 mHz    (417 m%)
    ac: freq = 794.3 mHz    (7.5 %), step = 86.38 mHz    (417 m%)
    ac: freq = 891.3 mHz   (7.92 %), step = 96.92 mHz    (417 m%)
    ac: freq = 1 Hz        (8.33 %), step = 108.7 mHz    (417 m%)
    ac: freq = 1.122 Hz    (8.75 %), step = 122 mHz      (417 m%)
    ac: freq = 1.259 Hz    (9.17 %), step = 136.9 mHz    (417 m%)
    ac: freq = 1.413 Hz    (9.58 %), step = 153.6 mHz    (417 m%)
    ac: freq = 1.585 Hz      (10 %), step = 172.4 mHz    (417 m%)
    ac: freq = 1.778 Hz    (10.4 %), step = 193.4 mHz    (417 m%)
    ac: freq = 1.995 Hz    (10.8 %), step = 217 mHz      (417 m%)
    ac: freq = 2.239 Hz    (11.2 %), step = 243.5 mHz    (417 m%)
    ac: freq = 2.512 Hz    (11.7 %), step = 273.2 mHz    (417 m%)
    ac: freq = 2.818 Hz    (12.1 %), step = 306.5 mHz    (417 m%)
    ac: freq = 3.162 Hz    (12.5 %), step = 343.9 mHz    (417 m%)
    ac: freq = 3.548 Hz    (12.9 %), step = 385.9 mHz    (417 m%)
    ac: freq = 3.981 Hz    (13.3 %), step = 432.9 mHz    (417 m%)
    ac: freq = 4.467 Hz    (13.8 %), step = 485.8 mHz    (417 m%)
    ac: freq = 5.012 Hz    (14.2 %), step = 545 mHz      (417 m%)
    ac: freq = 5.623 Hz    (14.6 %), step = 611.5 mHz    (417 m%)
    ac: freq = 6.31 Hz       (15 %), step = 686.2 mHz    (417 m%)
    ac: freq = 7.079 Hz    (15.4 %), step = 769.9 mHz    (417 m%)
    ac: freq = 7.943 Hz    (15.8 %), step = 863.8 mHz    (417 m%)
    ac: freq = 8.913 Hz    (16.2 %), step = 969.2 mHz    (417 m%)
    ac: freq = 10 Hz       (16.7 %), step = 1.087 Hz     (417 m%)
    ac: freq = 11.22 Hz    (17.1 %), step = 1.22 Hz      (417 m%)
    ac: freq = 12.59 Hz    (17.5 %), step = 1.369 Hz     (417 m%)
    ac: freq = 14.13 Hz    (17.9 %), step = 1.536 Hz     (417 m%)
    ac: freq = 15.85 Hz    (18.3 %), step = 1.724 Hz     (417 m%)
    ac: freq = 17.78 Hz    (18.8 %), step = 1.934 Hz     (417 m%)
    ac: freq = 19.95 Hz    (19.2 %), step = 2.17 Hz      (417 m%)
    ac: freq = 22.39 Hz    (19.6 %), step = 2.435 Hz     (417 m%)
    ac: freq = 25.12 Hz      (20 %), step = 2.732 Hz     (417 m%)
    ac: freq = 28.18 Hz    (20.4 %), step = 3.065 Hz     (417 m%)
    ac: freq = 31.62 Hz    (20.8 %), step = 3.439 Hz     (417 m%)
    ac: freq = 35.48 Hz    (21.2 %), step = 3.859 Hz     (417 m%)
    ac: freq = 39.81 Hz    (21.7 %), step = 4.329 Hz     (417 m%)
    ac: freq = 44.67 Hz    (22.1 %), step = 4.858 Hz     (417 m%)
    ac: freq = 50.12 Hz    (22.5 %), step = 5.45 Hz      (417 m%)
    ac: freq = 56.23 Hz    (22.9 %), step = 6.115 Hz     (417 m%)
    ac: freq = 63.1 Hz     (23.3 %), step = 6.862 Hz     (417 m%)
    ac: freq = 70.79 Hz    (23.8 %), step = 7.699 Hz     (417 m%)
    ac: freq = 79.43 Hz    (24.2 %), step = 8.638 Hz     (417 m%)
    ac: freq = 89.13 Hz    (24.6 %), step = 9.692 Hz     (417 m%)
    ac: freq = 100 Hz        (25 %), step = 10.87 Hz     (417 m%)
    ac: freq = 112.2 Hz    (25.4 %), step = 12.2 Hz      (417 m%)
    ac: freq = 125.9 Hz    (25.8 %), step = 13.69 Hz     (417 m%)
    ac: freq = 141.3 Hz    (26.2 %), step = 15.36 Hz     (417 m%)
    ac: freq = 158.5 Hz    (26.7 %), step = 17.24 Hz     (417 m%)
    ac: freq = 177.8 Hz    (27.1 %), step = 19.34 Hz     (417 m%)
    ac: freq = 199.5 Hz    (27.5 %), step = 21.7 Hz      (417 m%)
    ac: freq = 223.9 Hz    (27.9 %), step = 24.35 Hz     (417 m%)
    ac: freq = 251.2 Hz    (28.3 %), step = 27.32 Hz     (417 m%)
    ac: freq = 281.8 Hz    (28.7 %), step = 30.65 Hz     (417 m%)
    ac: freq = 316.2 Hz    (29.2 %), step = 34.39 Hz     (417 m%)
    ac: freq = 354.8 Hz    (29.6 %), step = 38.59 Hz     (417 m%)
    ac: freq = 398.1 Hz      (30 %), step = 43.29 Hz     (417 m%)
    ac: freq = 446.7 Hz    (30.4 %), step = 48.58 Hz     (417 m%)
    ac: freq = 501.2 Hz    (30.8 %), step = 54.5 Hz      (417 m%)
    ac: freq = 562.3 Hz    (31.2 %), step = 61.15 Hz     (417 m%)
    ac: freq = 631 Hz      (31.7 %), step = 68.62 Hz     (417 m%)
    ac: freq = 707.9 Hz    (32.1 %), step = 76.99 Hz     (417 m%)
    ac: freq = 794.3 Hz    (32.5 %), step = 86.38 Hz     (417 m%)
    ac: freq = 891.3 Hz    (32.9 %), step = 96.92 Hz     (417 m%)
    ac: freq = 1 kHz       (33.3 %), step = 108.7 Hz     (417 m%)
    ac: freq = 1.122 kHz   (33.8 %), step = 122 Hz       (417 m%)
    ac: freq = 1.259 kHz   (34.2 %), step = 136.9 Hz     (417 m%)
    ac: freq = 1.413 kHz   (34.6 %), step = 153.6 Hz     (417 m%)
    ac: freq = 1.585 kHz     (35 %), step = 172.4 Hz     (417 m%)
    ac: freq = 1.778 kHz   (35.4 %), step = 193.4 Hz     (417 m%)
    ac: freq = 1.995 kHz   (35.8 %), step = 217 Hz       (417 m%)
    ac: freq = 2.239 kHz   (36.2 %), step = 243.5 Hz     (417 m%)
    ac: freq = 2.512 kHz   (36.7 %), step = 273.2 Hz     (417 m%)
    ac: freq = 2.818 kHz   (37.1 %), step = 306.5 Hz     (417 m%)
    ac: freq = 3.162 kHz   (37.5 %), step = 343.9 Hz     (417 m%)
    ac: freq = 3.548 kHz   (37.9 %), step = 385.9 Hz     (417 m%)
    ac: freq = 3.981 kHz   (38.3 %), step = 432.9 Hz     (417 m%)
    ac: freq = 4.467 kHz   (38.8 %), step = 485.8 Hz     (417 m%)
    ac: freq = 5.012 kHz   (39.2 %), step = 545 Hz       (417 m%)
    ac: freq = 5.623 kHz   (39.6 %), step = 611.5 Hz     (417 m%)
    ac: freq = 6.31 kHz      (40 %), step = 686.2 Hz     (417 m%)
    ac: freq = 7.079 kHz   (40.4 %), step = 769.9 Hz     (417 m%)
    ac: freq = 7.943 kHz   (40.8 %), step = 863.8 Hz     (417 m%)
    ac: freq = 8.913 kHz   (41.2 %), step = 969.2 Hz     (417 m%)
    ac: freq = 10 kHz      (41.7 %), step = 1.087 kHz    (417 m%)
    ac: freq = 11.22 kHz   (42.1 %), step = 1.22 kHz     (417 m%)
    ac: freq = 12.59 kHz   (42.5 %), step = 1.369 kHz    (417 m%)
    ac: freq = 14.13 kHz   (42.9 %), step = 1.536 kHz    (417 m%)
    ac: freq = 15.85 kHz   (43.3 %), step = 1.724 kHz    (417 m%)
    ac: freq = 17.78 kHz   (43.8 %), step = 1.934 kHz    (417 m%)
    ac: freq = 19.95 kHz   (44.2 %), step = 2.17 kHz     (417 m%)
    ac: freq = 22.39 kHz   (44.6 %), step = 2.435 kHz    (417 m%)
    ac: freq = 25.12 kHz     (45 %), step = 2.732 kHz    (417 m%)
    ac: freq = 28.18 kHz   (45.4 %), step = 3.065 kHz    (417 m%)
    ac: freq = 31.62 kHz   (45.8 %), step = 3.439 kHz    (417 m%)
    ac: freq = 35.48 kHz   (46.2 %), step = 3.859 kHz    (417 m%)
    ac: freq = 39.81 kHz   (46.7 %), step = 4.329 kHz    (417 m%)
    ac: freq = 44.67 kHz   (47.1 %), step = 4.858 kHz    (417 m%)
    ac: freq = 50.12 kHz   (47.5 %), step = 5.45 kHz     (417 m%)
    ac: freq = 56.23 kHz   (47.9 %), step = 6.115 kHz    (417 m%)
    ac: freq = 63.1 kHz    (48.3 %), step = 6.862 kHz    (417 m%)
    ac: freq = 70.79 kHz   (48.8 %), step = 7.699 kHz    (417 m%)
    ac: freq = 79.43 kHz   (49.2 %), step = 8.638 kHz    (417 m%)
    ac: freq = 89.13 kHz   (49.6 %), step = 9.692 kHz    (417 m%)
    ac: freq = 100 kHz       (50 %), step = 10.87 kHz    (417 m%)
    ac: freq = 112.2 kHz   (50.4 %), step = 12.2 kHz     (417 m%)
    ac: freq = 125.9 kHz   (50.8 %), step = 13.69 kHz    (417 m%)
    ac: freq = 141.3 kHz   (51.2 %), step = 15.36 kHz    (417 m%)
    ac: freq = 158.5 kHz   (51.7 %), step = 17.24 kHz    (417 m%)
    ac: freq = 177.8 kHz   (52.1 %), step = 19.34 kHz    (417 m%)
    ac: freq = 199.5 kHz   (52.5 %), step = 21.7 kHz     (417 m%)
    ac: freq = 223.9 kHz   (52.9 %), step = 24.35 kHz    (417 m%)
    ac: freq = 251.2 kHz   (53.3 %), step = 27.32 kHz    (417 m%)
    ac: freq = 281.8 kHz   (53.8 %), step = 30.65 kHz    (417 m%)
    ac: freq = 316.2 kHz   (54.2 %), step = 34.39 kHz    (417 m%)
    ac: freq = 354.8 kHz   (54.6 %), step = 38.59 kHz    (417 m%)
    ac: freq = 398.1 kHz     (55 %), step = 43.29 kHz    (417 m%)
    ac: freq = 446.7 kHz   (55.4 %), step = 48.58 kHz    (417 m%)
    ac: freq = 501.2 kHz   (55.8 %), step = 54.5 kHz     (417 m%)
    ac: freq = 562.3 kHz   (56.2 %), step = 61.15 kHz    (417 m%)
    ac: freq = 631 kHz     (56.7 %), step = 68.62 kHz    (417 m%)
    ac: freq = 707.9 kHz   (57.1 %), step = 76.99 kHz    (417 m%)
    ac: freq = 794.3 kHz   (57.5 %), step = 86.38 kHz    (417 m%)
    ac: freq = 891.3 kHz   (57.9 %), step = 96.92 kHz    (417 m%)
    ac: freq = 1 MHz       (58.3 %), step = 108.7 kHz    (417 m%)
    ac: freq = 1.122 MHz   (58.8 %), step = 122 kHz      (417 m%)
    ac: freq = 1.259 MHz   (59.2 %), step = 136.9 kHz    (417 m%)
    ac: freq = 1.413 MHz   (59.6 %), step = 153.6 kHz    (417 m%)
    ac: freq = 1.585 MHz     (60 %), step = 172.4 kHz    (417 m%)
    ac: freq = 1.778 MHz   (60.4 %), step = 193.4 kHz    (417 m%)
    ac: freq = 1.995 MHz   (60.8 %), step = 217 kHz      (417 m%)
    ac: freq = 2.239 MHz   (61.3 %), step = 243.5 kHz    (417 m%)
    ac: freq = 2.512 MHz   (61.7 %), step = 273.2 kHz    (417 m%)
    ac: freq = 2.818 MHz   (62.1 %), step = 306.5 kHz    (417 m%)
    ac: freq = 3.162 MHz   (62.5 %), step = 343.9 kHz    (417 m%)
    ac: freq = 3.548 MHz   (62.9 %), step = 385.9 kHz    (417 m%)
    ac: freq = 3.981 MHz   (63.3 %), step = 432.9 kHz    (417 m%)
    ac: freq = 4.467 MHz   (63.7 %), step = 485.8 kHz    (417 m%)
    ac: freq = 5.012 MHz   (64.2 %), step = 545 kHz      (417 m%)
    ac: freq = 5.623 MHz   (64.6 %), step = 611.5 kHz    (417 m%)
    ac: freq = 6.31 MHz      (65 %), step = 686.2 kHz    (417 m%)
    ac: freq = 7.079 MHz   (65.4 %), step = 769.9 kHz    (417 m%)
    ac: freq = 7.943 MHz   (65.8 %), step = 863.8 kHz    (417 m%)
    ac: freq = 8.913 MHz   (66.2 %), step = 969.2 kHz    (417 m%)
    ac: freq = 10 MHz      (66.7 %), step = 1.087 MHz    (417 m%)
    ac: freq = 11.22 MHz   (67.1 %), step = 1.22 MHz     (417 m%)
    ac: freq = 12.59 MHz   (67.5 %), step = 1.369 MHz    (417 m%)
    ac: freq = 14.13 MHz   (67.9 %), step = 1.536 MHz    (417 m%)
    ac: freq = 15.85 MHz   (68.3 %), step = 1.724 MHz    (417 m%)
    ac: freq = 17.78 MHz   (68.8 %), step = 1.934 MHz    (417 m%)
    ac: freq = 19.95 MHz   (69.2 %), step = 2.17 MHz     (417 m%)
    ac: freq = 22.39 MHz   (69.6 %), step = 2.435 MHz    (417 m%)
    ac: freq = 25.12 MHz     (70 %), step = 2.732 MHz    (417 m%)
    ac: freq = 28.18 MHz   (70.4 %), step = 3.065 MHz    (417 m%)
    ac: freq = 31.62 MHz   (70.8 %), step = 3.439 MHz    (417 m%)
    ac: freq = 35.48 MHz   (71.2 %), step = 3.859 MHz    (417 m%)
    ac: freq = 39.81 MHz   (71.7 %), step = 4.329 MHz    (417 m%)
    ac: freq = 44.67 MHz   (72.1 %), step = 4.858 MHz    (417 m%)
    ac: freq = 50.12 MHz   (72.5 %), step = 5.45 MHz     (417 m%)
    ac: freq = 56.23 MHz   (72.9 %), step = 6.115 MHz    (417 m%)
    ac: freq = 63.1 MHz    (73.3 %), step = 6.862 MHz    (417 m%)
    ac: freq = 70.79 MHz   (73.8 %), step = 7.699 MHz    (417 m%)
    ac: freq = 79.43 MHz   (74.2 %), step = 8.638 MHz    (417 m%)
    ac: freq = 89.13 MHz   (74.6 %), step = 9.692 MHz    (417 m%)
    ac: freq = 100 MHz       (75 %), step = 10.87 MHz    (417 m%)
    ac: freq = 112.2 MHz   (75.4 %), step = 12.2 MHz     (417 m%)
    ac: freq = 125.9 MHz   (75.8 %), step = 13.69 MHz    (417 m%)
    ac: freq = 141.3 MHz   (76.2 %), step = 15.36 MHz    (417 m%)
    ac: freq = 158.5 MHz   (76.7 %), step = 17.24 MHz    (417 m%)
    ac: freq = 177.8 MHz   (77.1 %), step = 19.34 MHz    (417 m%)
    ac: freq = 199.5 MHz   (77.5 %), step = 21.7 MHz     (417 m%)
    ac: freq = 223.9 MHz   (77.9 %), step = 24.35 MHz    (417 m%)
    ac: freq = 251.2 MHz   (78.3 %), step = 27.32 MHz    (417 m%)
    ac: freq = 281.8 MHz   (78.8 %), step = 30.65 MHz    (417 m%)
    ac: freq = 316.2 MHz   (79.2 %), step = 34.39 MHz    (417 m%)
    ac: freq = 354.8 MHz   (79.6 %), step = 38.59 MHz    (417 m%)
    ac: freq = 398.1 MHz     (80 %), step = 43.29 MHz    (417 m%)
    ac: freq = 446.7 MHz   (80.4 %), step = 48.58 MHz    (417 m%)
    ac: freq = 501.2 MHz   (80.8 %), step = 54.5 MHz     (417 m%)
    ac: freq = 562.3 MHz   (81.2 %), step = 61.15 MHz    (417 m%)
    ac: freq = 631 MHz     (81.7 %), step = 68.62 MHz    (417 m%)
    ac: freq = 707.9 MHz   (82.1 %), step = 76.99 MHz    (417 m%)
    ac: freq = 794.3 MHz   (82.5 %), step = 86.38 MHz    (417 m%)
    ac: freq = 891.3 MHz   (82.9 %), step = 96.92 MHz    (417 m%)
    ac: freq = 1 GHz       (83.3 %), step = 108.7 MHz    (417 m%)
    ac: freq = 1.122 GHz   (83.8 %), step = 122 MHz      (417 m%)
    ac: freq = 1.259 GHz   (84.2 %), step = 136.9 MHz    (417 m%)
    ac: freq = 1.413 GHz   (84.6 %), step = 153.6 MHz    (417 m%)
    ac: freq = 1.585 GHz     (85 %), step = 172.4 MHz    (417 m%)
    ac: freq = 1.778 GHz   (85.4 %), step = 193.4 MHz    (417 m%)
    ac: freq = 1.995 GHz   (85.8 %), step = 217 MHz      (417 m%)
    ac: freq = 2.239 GHz   (86.2 %), step = 243.5 MHz    (417 m%)
    ac: freq = 2.512 GHz   (86.7 %), step = 273.2 MHz    (417 m%)
    ac: freq = 2.818 GHz   (87.1 %), step = 306.5 MHz    (417 m%)
    ac: freq = 3.162 GHz   (87.5 %), step = 343.9 MHz    (417 m%)
    ac: freq = 3.548 GHz   (87.9 %), step = 385.9 MHz    (417 m%)
    ac: freq = 3.981 GHz   (88.3 %), step = 432.9 MHz    (417 m%)
    ac: freq = 4.467 GHz   (88.8 %), step = 485.8 MHz    (417 m%)
    ac: freq = 5.012 GHz   (89.2 %), step = 545 MHz      (417 m%)
    ac: freq = 5.623 GHz   (89.6 %), step = 611.5 MHz    (417 m%)
    ac: freq = 6.31 GHz      (90 %), step = 686.2 MHz    (417 m%)
    ac: freq = 7.079 GHz   (90.4 %), step = 769.9 MHz    (417 m%)
    ac: freq = 7.943 GHz   (90.8 %), step = 863.8 MHz    (417 m%)
    ac: freq = 8.913 GHz   (91.2 %), step = 969.2 MHz    (417 m%)
    ac: freq = 10 GHz      (91.7 %), step = 1.087 GHz    (417 m%)
    ac: freq = 11.22 GHz   (92.1 %), step = 1.22 GHz     (417 m%)
    ac: freq = 12.59 GHz   (92.5 %), step = 1.369 GHz    (417 m%)
    ac: freq = 14.13 GHz   (92.9 %), step = 1.536 GHz    (417 m%)
    ac: freq = 15.85 GHz   (93.3 %), step = 1.724 GHz    (417 m%)
    ac: freq = 17.78 GHz   (93.8 %), step = 1.934 GHz    (417 m%)
    ac: freq = 19.95 GHz   (94.2 %), step = 2.17 GHz     (417 m%)
    ac: freq = 22.39 GHz   (94.6 %), step = 2.435 GHz    (417 m%)
    ac: freq = 25.12 GHz     (95 %), step = 2.732 GHz    (417 m%)
    ac: freq = 28.18 GHz   (95.4 %), step = 3.065 GHz    (417 m%)
    ac: freq = 31.62 GHz   (95.8 %), step = 3.439 GHz    (417 m%)
    ac: freq = 35.48 GHz   (96.2 %), step = 3.859 GHz    (417 m%)
    ac: freq = 39.81 GHz   (96.7 %), step = 4.329 GHz    (417 m%)
    ac: freq = 44.67 GHz   (97.1 %), step = 4.858 GHz    (417 m%)
    ac: freq = 50.12 GHz   (97.5 %), step = 5.45 GHz     (417 m%)
    ac: freq = 56.23 GHz   (97.9 %), step = 6.115 GHz    (417 m%)
    ac: freq = 63.1 GHz    (98.3 %), step = 6.862 GHz    (417 m%)
    ac: freq = 70.79 GHz   (98.8 %), step = 7.699 GHz    (417 m%)
    ac: freq = 79.43 GHz   (99.2 %), step = 8.638 GHz    (417 m%)
    ac: freq = 89.13 GHz   (99.6 %), step = 9.692 GHz    (417 m%)
    ac: freq = 100 GHz      (100 %), step = 10.87 GHz    (417 m%)
Accumulated DC solution time =            337.124 us.
Intrinsic ac analysis time =              7.95794 ms.
Total time required for ac analysis `ac': CPU = 5.127 ms, elapsed = 8.32701 ms, util. = 61.6%.
Time accumulated: CPU = 329.943 ms, elapsed = 673.637 ms.
Peak resident memory used = 126 Mbytes.

modelParameter: writing model parameter values to rawfile.

Opening the PSF file ../psf/modelParameter.info ...
element: writing instance parameter values to rawfile.

Opening the PSF file ../psf/element.info ...
outputParameter: writing output parameter values to rawfile.

Opening the PSF file ../psf/outputParameter.info ...
designParamVals: writing netlist parameters to rawfile.

Opening the PSFASCII file ../psf/designParamVals.info ...
primitives: writing primitives to rawfile.

Opening the PSFASCII file ../psf/primitives.info.primitives ...
subckts: writing subcircuits to rawfile.

Opening the PSFASCII file ../psf/subckts.info.subckts ...
Licensing Information:
Lic Summary:
[07:28:55.378562] Cdslmd servers:3000@lic08.ug.kth.se
[07:28:55.378592] Feature usage summary:
[07:28:55.378592] Virtuoso_Multi_mode_Simulation


Aggregate audit (7:28:55 AM, Sat Feb 17, 2024):
Time used: CPU = 342 ms, elapsed = 711 ms, util. = 48.1%.
Time spent in licensing: elapsed = 622 ms, percentage of total = 87.4%.
Peak memory used = 128 Mbytes.
Simulation started at: 7:28:55 AM, Sat Feb 17, 2024, ended at: 7:28:55 AM, Sat Feb 17, 2024, with elapsed time (wall clock): 711 ms.
spectre completes with 0 errors, 0 warnings, and 5 notices.


********* LOG ENDS **************
**                             **
