
Spectre (R) Circuit Simulator
Version 23.1.0.305.isr3 64bit -- 13 Nov 2023
Copyright (C) 1989-2023 Cadence Design Systems, Inc. All rights reserved worldwide. Cadence and Spectre are registered trademarks of Cadence Design Systems, Inc. All others are the property of their respective holders.

Includes RSA BSAFE(R) Cryptographic or Security Protocol Software from RSA Security, Inc.

User: saul   Host: phoenix   HostID: A0F02   PID: 23472
Memory  available: 14.0902 GB  physical: 16.6560 GB
Linux   : CentOS Linux release 7 (Core)
CPU Type: 11th Gen Intel(R) Core(TM) i7-11700K @ 3.60GHz
All processors running at 3600.0 MHz
        Socket: Processors
        0:       0,  1,  2,  3,  4,  5
        
System load averages (1min, 5min, 15min) : 1.2 %, 1.0 %, 0.8 %


Simulating `input.scs' on phoenix at 5:55:35 AM, Sat Feb 17, 2024 (process id: 23472).
Current working directory: /home/saul/projects/XH018_mixed_ji3/test_mix/virtuoso/Sim/GMID_NMOS_L/spectre/schematic/netlist
Command line:
    /pkg/cadence/installs/SPECTRE231/tools/bin/spectre -64 input.scs  \
        +escchars +log ../psf/spectre.out +inter=mpsc  \
        +mpssession=spectre11_15372_10 -format psfxl -raw ../psf  \
        +lqtimeout 900 -maxw 5 -maxn 5 -env ade
spectre pid = 23472

Licensing Information:
[05:55:35.512441] Configured Lic search path (22.01-s002): 3000@lic08.ug.kth.se

Licensing Information:
[05:55:35.184971] Periodic Lic check successful

Loading /pkg/cadence/installs/SPECTRE231/tools.lnx86/cmi/lib/64bit/5.0/libinfineon_sh.so ...
Loading /pkg/cadence/installs/SPECTRE231/tools.lnx86/cmi/lib/64bit/5.0/libphilips_I_sh.so ...
Loading /pkg/cadence/installs/SPECTRE231/tools.lnx86/cmi/lib/64bit/5.0/libphilips_sh.so ...
Loading /pkg/cadence/installs/SPECTRE231/tools.lnx86/cmi/lib/64bit/5.0/libsparam_sh.so ...
Loading /pkg/cadence/installs/SPECTRE231/tools.lnx86/cmi/lib/64bit/5.0/libstmodels_sh.so ...
Reading file:  /home/saul/projects/XH018_mixed_ji3/test_mix/virtuoso/Sim/GMID_NMOS_L/spectre/schematic/netlist/input.scs
Reading link:  /pkg/cadence
Reading file:  /home/saul/cadence/installs/SPECTRE231/tools.lnx86/spectre/etc/configs/spectre.cfg

Error found by spectre during circuit read-in.
    ERROR (SFE-868): "input.scs" 9: Cannot open the input file '/pkg/xfab/XKIT/xh018/cadence/v8_0/spectre/v8_0_1/lpmos/config.scs' because either the file name or the directory specified is invalid. Ensure that the specified file exists and the path to the file is valid. Alternatively, use the -I <path> command-line option to specify the path to the file and rerun the simulation.
    ERROR (SFE-868): "input.scs" 10: Cannot open the input file '/pkg/xfab/XKIT/xh018/cadence/v8_0/spectre/v8_0_1/lpmos/param.scs' because either the file name or the directory specified is invalid. Ensure that the specified file exists and the path to the file is valid. Alternatively, use the -I <path> command-line option to specify the path to the file and rerun the simulation.
    ERROR (SFE-868): "input.scs" 11: Cannot open the input file '/pkg/xfab/XKIT/xh018/cadence/v8_0/spectre/v8_0_1/lpmos/bip.scs' because either the file name or the directory specified is invalid. Ensure that the specified file exists and the path to the file is valid. Alternatively, use the -I <path> command-line option to specify the path to the file and rerun the simulation.
    ERROR (SFE-868): "input.scs" 12: Cannot open the input file '/pkg/xfab/XKIT/xh018/cadence/v8_0/spectre/v8_0_1/lpmos/cap.scs' because either the file name or the directory specified is invalid. Ensure that the specified file exists and the path to the file is valid. Alternatively, use the -I <path> command-line option to specify the path to the file and rerun the simulation.
    ERROR (SFE-868): "input.scs" 13: Cannot open the input file '/pkg/xfab/XKIT/xh018/cadence/v8_0/spectre/v8_0_1/lpmos/dio.scs' because either the file name or the directory specified is invalid. Ensure that the specified file exists and the path to the file is valid. Alternatively, use the -I <path> command-line option to specify the path to the file and rerun the simulation.
    ERROR (SFE-868): "input.scs" 14: Cannot open the input file '/pkg/xfab/XKIT/xh018/cadence/v8_0/spectre/v8_0_1/lpmos/mos.scs' because either the file name or the directory specified is invalid. Ensure that the specified file exists and the path to the file is valid. Alternatively, use the -I <path> command-line option to specify the path to the file and rerun the simulation.
    ERROR (SFE-868): "input.scs" 15: Cannot open the input file '/pkg/xfab/XKIT/xh018/cadence/v8_0/spectre/v8_0_1/lpmos/photo.scs' because either the file name or the directory specified is invalid. Ensure that the specified file exists and the path to the file is valid. Alternatively, use the -I <path> command-line option to specify the path to the file and rerun the simulation.
    ERROR (SFE-868): "input.scs" 16: Cannot open the input file '/pkg/xfab/XKIT/xh018/cadence/v8_0/spectre/v8_0_1/lpmos/res.scs' because either the file name or the directory specified is invalid. Ensure that the specified file exists and the path to the file is valid. Alternatively, use the -I <path> command-line option to specify the path to the file and rerun the simulation.

Time for NDB Parsing: CPU = 70.362 ms, elapsed = 163.031 ms.
Time accumulated: CPU = 119.634 ms, elapsed = 163.034 ms.
Peak resident memory used = 104 Mbytes.

Licensing Information:
Lic Summary:
[05:55:35.211248] Cdslmd servers:3000@lic08.ug.kth.se
[05:55:35.211259] Feature usage summary:
[05:55:35.211264] Virtuoso_Multi_mode_Simulation


Aggregate audit (5:55:35 AM, Sat Feb 17, 2024):
Time used: CPU = 121 ms, elapsed = 164 ms, util. = 73.5%.
Time spent in licensing: elapsed = 83.7 ms, percentage of total = 51%.
Peak memory used = 105 Mbytes.
Simulation started at: 5:55:35 AM, Sat Feb 17, 2024, ended at: 5:55:35 AM, Sat Feb 17, 2024, with elapsed time (wall clock): 164 ms.
spectre completes with 8 errors, 0 warnings, and 0 notices.
spectre terminated prematurely due to fatal error.
