
Spectre (R) Circuit Simulator
Version 23.1.0.305.isr3 64bit -- 13 Nov 2023
Copyright (C) 1989-2023 Cadence Design Systems, Inc. All rights reserved worldwide. Cadence and Spectre are registered trademarks of Cadence Design Systems, Inc. All others are the property of their respective holders.

Includes RSA BSAFE(R) Cryptographic or Security Protocol Software from RSA Security, Inc.

User: saul   Host: phoenix   HostID: A0F02   PID: 29081
Memory  available: 11.7966 GB  physical: 16.6560 GB
Linux   : CentOS Linux release 7 (Core)
CPU Type: 11th Gen Intel(R) Core(TM) i7-11700K @ 3.60GHz
All processors running at 3600.0 MHz
        Socket: Processors
        0:       0,  1,  2,  3,  4,  5
        
System load averages (1min, 5min, 15min) : 4.2 %, 3.3 %, 1.8 %
HPC is enabled


Simulating `input.scs' on phoenix at 2:02:04 AM, Mon Feb 5, 2024 (process id: 29081).
Current working directory: /home/saul/projects/XH018_mixed_ji3/test_mix/virtuoso/Sim/INV_HV/nedia_dc/adexl/results/data/Interactive.4/1/INV_HV:nedia_dc:1/netlist
Command line:
    /pkg/cadence/installs/SPECTRE231/tools/bin/spectre -64 input.scs  \
        +escchars +log ../psf/spectre.out -format psfxl -raw ../psf  \
        +aps +mt +lqtimeout 900 -maxw 5 -maxn 5 -env ade -ahdllibdir  \
        /home/saul/projects/XH018_mixed_ji3/test_mix/virtuoso/Sim/INV_HV/nedia_dc/adexl/results/data/Interactive.4/sharedData/Job0/ahdl/input.ahdlSimDB  \
        +logstatus

Licensing Information:
[02:02:04.512321] Configured Lic search path (22.01-s002): 3000@lic08.ug.kth.se

Licensing Information:
[02:02:04.100203] Periodic Lic check successful

Loading /pkg/cadence/installs/SPECTRE231/tools.lnx86/cmi/lib/64bit/5.0/libinfineon_sh.so ...
Loading /pkg/cadence/installs/SPECTRE231/tools.lnx86/cmi/lib/64bit/5.0/libphilips_I_sh.so ...
Loading /pkg/cadence/installs/SPECTRE231/tools.lnx86/cmi/lib/64bit/5.0/libphilips_sh.so ...
Loading /pkg/cadence/installs/SPECTRE231/tools.lnx86/cmi/lib/64bit/5.0/libsparam_sh.so ...
Loading /pkg/cadence/installs/SPECTRE231/tools.lnx86/cmi/lib/64bit/5.0/libstmodels_sh.so ...
Reading file:  /home/saul/projects/XH018_mixed_ji3/test_mix/virtuoso/Sim/INV_HV/nedia_dc/adexl/results/data/Interactive.4/1/INV_HV:nedia_dc:1/netlist/input.scs
Reading link:  /pkg/cadence
Reading file:  /home/saul/cadence/installs/SPECTRE231/tools.lnx86/spectre/etc/configs/spectre.cfg
Reading file:  /home/saul/pkg/xfab/XKIT/xh018/cadence/v9_0/spectre/v9_0_2/lpmos/config.scs
Reading file:  /home/saul/pkg/xfab/XKIT/xh018/cadence/v9_0/spectre/v9_0_2/lpmos/param.scs
Reading file:  /home/saul/pkg/xfab/XKIT/xh018/cadence/v9_0/spectre/v9_0_2/lpmos/bip.scs
Reading file:  /home/saul/pkg/xfab/XKIT/xh018/cadence/v9_0/spectre/v9_0_2/lpmos/models/bip/tm_bip.scs
Reading file:  /home/saul/pkg/xfab/XKIT/xh018/cadence/v9_0/spectre/v9_0_2/lpmos/models/bip/qpva.scs
Reading file:  /home/saul/pkg/xfab/XKIT/xh018/cadence/v9_0/spectre/v9_0_2/lpmos/models/bip/qpvb.scs
Reading file:  /home/saul/pkg/xfab/XKIT/xh018/cadence/v9_0/spectre/v9_0_2/lpmos/models/bip/qpvc.scs
Reading file:  /home/saul/pkg/xfab/XKIT/xh018/cadence/v9_0/spectre/v9_0_2/lpmos/models/bip/qpva3.scs
Reading file:  /home/saul/pkg/xfab/XKIT/xh018/cadence/v9_0/spectre/v9_0_2/lpmos/models/bip/qpvb3.scs
Reading file:  /home/saul/pkg/xfab/XKIT/xh018/cadence/v9_0/spectre/v9_0_2/lpmos/models/bip/qpvc3.scs
Reading file:  /home/saul/pkg/xfab/XKIT/xh018/cadence/v9_0/spectre/v9_0_2/lpmos/models/bip/qnva.scs
Reading file:  /home/saul/pkg/xfab/XKIT/xh018/cadence/v9_0/spectre/v9_0_2/lpmos/models/bip/qnvb.scs
Reading file:  /home/saul/pkg/xfab/XKIT/xh018/cadence/v9_0/spectre/v9_0_2/lpmos/models/bip/qnvb_npn.scs
Reading file:  /home/saul/pkg/xfab/XKIT/xh018/cadence/v9_0/spectre/v9_0_2/lpmos/models/bip/qnvb_pnp.scs
Reading file:  /home/saul/pkg/xfab/XKIT/xh018/cadence/v9_0/spectre/v9_0_2/lpmos/models/bip/qnvc.scs
Reading file:  /home/saul/pkg/xfab/XKIT/xh018/cadence/v9_0/spectre/v9_0_2/lpmos/models/bip/qnvc_npn.scs
Reading file:  /home/saul/pkg/xfab/XKIT/xh018/cadence/v9_0/spectre/v9_0_2/lpmos/models/bip/qnvc_pnp.scs
Reading file:  /home/saul/pkg/xfab/XKIT/xh018/cadence/v9_0/spectre/v9_0_2/lpmos/models/bip/qpvhscr.scs
Reading file:  /home/saul/pkg/xfab/XKIT/xh018/cadence/v9_0/spectre/v9_0_2/lpmos/models/bip/qpvascr.scs
Reading file:  /home/saul/pkg/xfab/XKIT/xh018/cadence/v9_0/spectre/v9_0_2/lpmos/models/bip/qpvhbscr.scs
Reading file:  /home/saul/pkg/xfab/XKIT/xh018/cadence/v9_0/spectre/v9_0_2/lpmos/models/bip/qnvba.scs
Reading file:  /home/saul/pkg/xfab/XKIT/xh018/cadence/v9_0/spectre/v9_0_2/lpmos/models/bip/qnvba_npn.scs
Reading file:  /home/saul/pkg/xfab/XKIT/xh018/cadence/v9_0/spectre/v9_0_2/lpmos/models/bip/qnvba_pnp.scs
Reading file:  /home/saul/pkg/xfab/XKIT/xh018/cadence/v9_0/spectre/v9_0_2/lpmos/models/bip/qnvca.scs
Reading file:  /home/saul/pkg/xfab/XKIT/xh018/cadence/v9_0/spectre/v9_0_2/lpmos/models/bip/qnvca_npn.scs
Reading file:  /home/saul/pkg/xfab/XKIT/xh018/cadence/v9_0/spectre/v9_0_2/lpmos/models/bip/qnvca_pnp.scs
Reading file:  /home/saul/pkg/xfab/XKIT/xh018/cadence/v9_0/spectre/v9_0_2/lpmos/models/bip/qpv_pa.scs
Reading file:  /home/saul/pkg/xfab/XKIT/xh018/cadence/v9_0/spectre/v9_0_2/lpmos/models/bip/qpv_pb.scs
Reading file:  /home/saul/pkg/xfab/XKIT/xh018/cadence/v9_0/spectre/v9_0_2/lpmos/models/bip/qpv_pc.scs
Reading file:  /home/saul/pkg/xfab/XKIT/xh018/cadence/v9_0/spectre/v9_0_2/lpmos/models/bip/qpv_pd.scs
Reading file:  /home/saul/pkg/xfab/XKIT/xh018/cadence/v9_0/spectre/v9_0_2/lpmos/models/bip/qpv_pe.scs
Reading file:  /home/saul/pkg/xfab/XKIT/xh018/cadence/v9_0/spectre/v9_0_2/lpmos/models/bip/qpv_pf.scs
Reading file:  /home/saul/pkg/xfab/XKIT/xh018/cadence/v9_0/spectre/v9_0_2/lpmos/models/bip/qpl_pa.scs
Reading file:  /home/saul/pkg/xfab/XKIT/xh018/cadence/v9_0/spectre/v9_0_2/lpmos/models/bip/qpl_pb.scs
Reading file:  /home/saul/pkg/xfab/XKIT/xh018/cadence/v9_0/spectre/v9_0_2/lpmos/models/bip/qpl_pc.scs
Reading file:  /home/saul/pkg/xfab/XKIT/xh018/cadence/v9_0/spectre/v9_0_2/lpmos/models/bip/qpl_pd.scs
Reading file:  /home/saul/pkg/xfab/XKIT/xh018/cadence/v9_0/spectre/v9_0_2/lpmos/models/bip/qpl_pe.scs
Reading file:  /home/saul/pkg/xfab/XKIT/xh018/cadence/v9_0/spectre/v9_0_2/lpmos/models/bip/qpl_pf.scs
Reading file:  /home/saul/pkg/xfab/XKIT/xh018/cadence/v9_0/spectre/v9_0_2/lpmos/models/bip/qnl_pa.scs
Reading file:  /home/saul/pkg/xfab/XKIT/xh018/cadence/v9_0/spectre/v9_0_2/lpmos/models/bip/qnl_pb.scs
Reading file:  /home/saul/pkg/xfab/XKIT/xh018/cadence/v9_0/spectre/v9_0_2/lpmos/models/bip/qnl_pc.scs
Reading file:  /home/saul/pkg/xfab/XKIT/xh018/cadence/v9_0/spectre/v9_0_2/lpmos/models/bip/qnl_pd.scs
Reading file:  /home/saul/pkg/xfab/XKIT/xh018/cadence/v9_0/spectre/v9_0_2/lpmos/models/bip/qnl_pe.scs
Reading file:  /home/saul/pkg/xfab/XKIT/xh018/cadence/v9_0/spectre/v9_0_2/lpmos/models/bip/qnl_pf.scs
Reading file:  /home/saul/pkg/xfab/XKIT/xh018/cadence/v9_0/spectre/v9_0_2/lpmos/cap.scs
Reading file:  /home/saul/pkg/xfab/XKIT/xh018/cadence/v9_0/spectre/v9_0_2/lpmos/models/cap/tm_cap.scs
Reading file:  /home/saul/pkg/xfab/XKIT/xh018/cadence/v9_0/spectre/v9_0_2/lpmos/models/cap/csandwt3.scs
Reading file:  /home/saul/pkg/xfab/XKIT/xh018/cadence/v9_0/spectre/v9_0_2/lpmos/models/cap/csandwt4.scs
Reading file:  /home/saul/pkg/xfab/XKIT/xh018/cadence/v9_0/spectre/v9_0_2/lpmos/models/cap/csandwt5.scs
Reading file:  /home/saul/pkg/xfab/XKIT/xh018/cadence/v9_0/spectre/v9_0_2/lpmos/models/cap/csf2p.scs
Reading file:  /home/saul/pkg/xfab/XKIT/xh018/cadence/v9_0/spectre/v9_0_2/lpmos/models/cap/csf3p.scs
Reading file:  /home/saul/pkg/xfab/XKIT/xh018/cadence/v9_0/spectre/v9_0_2/lpmos/models/cap/csf3.scs
Reading file:  /home/saul/pkg/xfab/XKIT/xh018/cadence/v9_0/spectre/v9_0_2/lpmos/models/cap/csf4.scs
Reading file:  /home/saul/pkg/xfab/XKIT/xh018/cadence/v9_0/spectre/v9_0_2/lpmos/models/cap/csf5.scs
Reading file:  /home/saul/pkg/xfab/XKIT/xh018/cadence/v9_0/spectre/v9_0_2/lpmos/models/cap/csft4.scs
Reading file:  /home/saul/pkg/xfab/XKIT/xh018/cadence/v9_0/spectre/v9_0_2/lpmos/models/cap/csft5.scs
Reading file:  /home/saul/pkg/xfab/XKIT/xh018/cadence/v9_0/spectre/v9_0_2/lpmos/models/cap/csft6.scs
Reading file:  /home/saul/pkg/xfab/XKIT/xh018/cadence/v9_0/spectre/v9_0_2/lpmos/models/cap/csf3a.scs
Reading file:  /home/saul/pkg/xfab/XKIT/xh018/cadence/v9_0/spectre/v9_0_2/lpmos/models/cap/csf4a.scs
Reading file:  /home/saul/pkg/xfab/XKIT/xh018/cadence/v9_0/spectre/v9_0_2/lpmos/models/cap/csf5a.scs
Reading file:  /home/saul/pkg/xfab/XKIT/xh018/cadence/v9_0/spectre/v9_0_2/lpmos/models/cap/csft4a.scs
Reading file:  /home/saul/pkg/xfab/XKIT/xh018/cadence/v9_0/spectre/v9_0_2/lpmos/models/cap/csft5a.scs
Reading file:  /home/saul/pkg/xfab/XKIT/xh018/cadence/v9_0/spectre/v9_0_2/lpmos/models/cap/csft6a.scs
Reading file:  /home/saul/pkg/xfab/XKIT/xh018/cadence/v9_0/spectre/v9_0_2/lpmos/models/cap/cif3a.scs
Reading file:  /home/saul/pkg/xfab/XKIT/xh018/cadence/v9_0/spectre/v9_0_2/lpmos/models/cap/cif4a.scs
Reading file:  /home/saul/pkg/xfab/XKIT/xh018/cadence/v9_0/spectre/v9_0_2/lpmos/models/cap/cif5a.scs
Reading file:  /home/saul/pkg/xfab/XKIT/xh018/cadence/v9_0/spectre/v9_0_2/lpmos/models/cap/cift4a.scs
Reading file:  /home/saul/pkg/xfab/XKIT/xh018/cadence/v9_0/spectre/v9_0_2/lpmos/models/cap/cift5a.scs
Reading file:  /home/saul/pkg/xfab/XKIT/xh018/cadence/v9_0/spectre/v9_0_2/lpmos/models/cap/cift6a.scs
Reading file:  /home/saul/pkg/xfab/XKIT/xh018/cadence/v9_0/spectre/v9_0_2/lpmos/models/cap/cmm3.scs
Reading file:  /home/saul/pkg/xfab/XKIT/xh018/cadence/v9_0/spectre/v9_0_2/lpmos/models/cap/cmm4t.scs
Reading file:  /home/saul/pkg/xfab/XKIT/xh018/cadence/v9_0/spectre/v9_0_2/lpmos/models/cap/cmm4.scs
Reading file:  /home/saul/pkg/xfab/XKIT/xh018/cadence/v9_0/spectre/v9_0_2/lpmos/models/cap/cmm5t.scs
Reading file:  /home/saul/pkg/xfab/XKIT/xh018/cadence/v9_0/spectre/v9_0_2/lpmos/models/cap/cmm6t.scs
Reading file:  /home/saul/pkg/xfab/XKIT/xh018/cadence/v9_0/spectre/v9_0_2/lpmos/models/cap/cdmm4.scs
Reading file:  /home/saul/pkg/xfab/XKIT/xh018/cadence/v9_0/spectre/v9_0_2/lpmos/models/cap/cdmm4t.scs
Reading file:  /home/saul/pkg/xfab/XKIT/xh018/cadence/v9_0/spectre/v9_0_2/lpmos/models/cap/ctmm5.scs
Reading file:  /home/saul/pkg/xfab/XKIT/xh018/cadence/v9_0/spectre/v9_0_2/lpmos/models/cap/ctmm5t.scs
Reading file:  /home/saul/pkg/xfab/XKIT/xh018/cadence/v9_0/spectre/v9_0_2/lpmos/models/cap/cmmh3.scs
Reading file:  /home/saul/pkg/xfab/XKIT/xh018/cadence/v9_0/spectre/v9_0_2/lpmos/models/cap/cmmh4t.scs
Reading file:  /home/saul/pkg/xfab/XKIT/xh018/cadence/v9_0/spectre/v9_0_2/lpmos/models/cap/cmmh4.scs
Reading file:  /home/saul/pkg/xfab/XKIT/xh018/cadence/v9_0/spectre/v9_0_2/lpmos/models/cap/cmmh5t.scs
Reading file:  /home/saul/pkg/xfab/XKIT/xh018/cadence/v9_0/spectre/v9_0_2/lpmos/models/cap/cmmh6t.scs
Reading file:  /home/saul/pkg/xfab/XKIT/xh018/cadence/v9_0/spectre/v9_0_2/lpmos/models/cap/cdmmh4.scs
Reading file:  /home/saul/pkg/xfab/XKIT/xh018/cadence/v9_0/spectre/v9_0_2/lpmos/models/cap/cdmmh4t.scs
Reading file:  /home/saul/pkg/xfab/XKIT/xh018/cadence/v9_0/spectre/v9_0_2/lpmos/models/cap/ctmmh5.scs
Reading file:  /home/saul/pkg/xfab/XKIT/xh018/cadence/v9_0/spectre/v9_0_2/lpmos/models/cap/ctmmh5t.scs
Reading file:  /home/saul/pkg/xfab/XKIT/xh018/cadence/v9_0/spectre/v9_0_2/lpmos/models/cap/mosvc.scs
Reading file:  /home/saul/pkg/xfab/XKIT/xh018/cadence/v9_0/spectre/v9_0_2/lpmos/models/cap/mosvc_pmos.scs
Reading file:  /home/saul/pkg/xfab/XKIT/xh018/cadence/v9_0/spectre/v9_0_2/lpmos/models/cap/mosvci.scs
Reading file:  /home/saul/pkg/xfab/XKIT/xh018/cadence/v9_0/spectre/v9_0_2/lpmos/models/cap/mosvci_nmos.scs
Reading file:  /home/saul/pkg/xfab/XKIT/xh018/cadence/v9_0/spectre/v9_0_2/lpmos/models/cap/mosvci_m.scs
Reading file:  /home/saul/pkg/xfab/XKIT/xh018/cadence/v9_0/spectre/v9_0_2/lpmos/models/cap/mosvc3.scs
Reading file:  /home/saul/pkg/xfab/XKIT/xh018/cadence/v9_0/spectre/v9_0_2/lpmos/models/cap/mosvc3_pmos.scs
Reading file:  /home/saul/pkg/xfab/XKIT/xh018/cadence/v9_0/spectre/v9_0_2/lpmos/models/cap/mosvc3i.scs
Reading file:  /home/saul/pkg/xfab/XKIT/xh018/cadence/v9_0/spectre/v9_0_2/lpmos/models/cap/mosvc3i_nmos.scs
Reading file:  /home/saul/pkg/xfab/XKIT/xh018/cadence/v9_0/spectre/v9_0_2/lpmos/models/cap/mosvc3i_m.scs
Reading file:  /home/saul/pkg/xfab/XKIT/xh018/cadence/v9_0/spectre/v9_0_2/lpmos/models/cap/cpod.scs
Reading file:  /home/saul/pkg/xfab/XKIT/xh018/cadence/v9_0/spectre/v9_0_2/lpmos/models/cap/cpod_i.scs
Reading file:  /home/saul/pkg/xfab/XKIT/xh018/cadence/v9_0/spectre/v9_0_2/lpmos/models/cap/cpodhv.scs
Reading file:  /home/saul/pkg/xfab/XKIT/xh018/cadence/v9_0/spectre/v9_0_2/lpmos/models/cap/cpodhv_i.scs
Reading file:  /home/saul/pkg/xfab/XKIT/xh018/cadence/v9_0/spectre/v9_0_2/lpmos/models/cap/cp1sub.scs
Reading file:  /home/saul/pkg/xfab/XKIT/xh018/cadence/v9_0/spectre/v9_0_2/lpmos/models/cap/cp1suba.scs
Reading file:  /home/saul/pkg/xfab/XKIT/xh018/cadence/v9_0/spectre/v9_0_2/lpmos/models/cap/cp1subp.scs
Reading file:  /home/saul/pkg/xfab/XKIT/xh018/cadence/v9_0/spectre/v9_0_2/lpmos/models/cap/tag_25v.scs
Reading file:  /home/saul/pkg/xfab/XKIT/xh018/cadence/v9_0/spectre/v9_0_2/lpmos/models/cap/tag_60v.scs
Reading file:  /home/saul/pkg/xfab/XKIT/xh018/cadence/v9_0/spectre/v9_0_2/lpmos/dio.scs
Reading file:  /home/saul/pkg/xfab/XKIT/xh018/cadence/v9_0/spectre/v9_0_2/lpmos/models/dio/tm_dio.scs
Reading file:  /home/saul/pkg/xfab/XKIT/xh018/cadence/v9_0/spectre/v9_0_2/lpmos/models/dio/dn.scs
Reading file:  /home/saul/pkg/xfab/XKIT/xh018/cadence/v9_0/spectre/v9_0_2/lpmos/models/dio/dp.scs
Reading file:  /home/saul/pkg/xfab/XKIT/xh018/cadence/v9_0/spectre/v9_0_2/lpmos/models/dio/dnw.scs
Reading file:  /home/saul/pkg/xfab/XKIT/xh018/cadence/v9_0/spectre/v9_0_2/lpmos/models/dio/dn3.scs
Reading file:  /home/saul/pkg/xfab/XKIT/xh018/cadence/v9_0/spectre/v9_0_2/lpmos/models/dio/dnn3.scs
Reading file:  /home/saul/pkg/xfab/XKIT/xh018/cadence/v9_0/spectre/v9_0_2/lpmos/models/dio/dp3.scs
Reading file:  /home/saul/pkg/xfab/XKIT/xh018/cadence/v9_0/spectre/v9_0_2/lpmos/models/dio/dnw3.scs
Reading file:  /home/saul/pkg/xfab/XKIT/xh018/cadence/v9_0/spectre/v9_0_2/lpmos/models/dio/ddnwmv.scs
Reading file:  /home/saul/pkg/xfab/XKIT/xh018/cadence/v9_0/spectre/v9_0_2/lpmos/models/dio/dpdnwmv.scs
Reading file:  /home/saul/pkg/xfab/XKIT/xh018/cadence/v9_0/spectre/v9_0_2/lpmos/models/dio/dipdnwmv.scs
Reading file:  /home/saul/pkg/xfab/XKIT/xh018/cadence/v9_0/spectre/v9_0_2/lpmos/models/dio/ddnw.scs
Reading file:  /home/saul/pkg/xfab/XKIT/xh018/cadence/v9_0/spectre/v9_0_2/lpmos/models/dio/dpdnw.scs
Reading file:  /home/saul/pkg/xfab/XKIT/xh018/cadence/v9_0/spectre/v9_0_2/lpmos/models/dio/dipdnw.scs
Reading file:  /home/saul/pkg/xfab/XKIT/xh018/cadence/v9_0/spectre/v9_0_2/lpmos/models/dio/dnhpw.scs
Reading file:  /home/saul/pkg/xfab/XKIT/xh018/cadence/v9_0/spectre/v9_0_2/lpmos/models/dio/dnhpwa.scs
Reading file:  /home/saul/pkg/xfab/XKIT/xh018/cadence/v9_0/spectre/v9_0_2/lpmos/models/dio/dphnw.scs
Reading file:  /home/saul/pkg/xfab/XKIT/xh018/cadence/v9_0/spectre/v9_0_2/lpmos/models/dio/dphnwa.scs
Reading file:  /home/saul/pkg/xfab/XKIT/xh018/cadence/v9_0/spectre/v9_0_2/lpmos/models/dio/dhpw.scs
Reading file:  /home/saul/pkg/xfab/XKIT/xh018/cadence/v9_0/spectre/v9_0_2/lpmos/models/dio/dhnw.scs
Reading file:  /home/saul/pkg/xfab/XKIT/xh018/cadence/v9_0/spectre/v9_0_2/lpmos/models/dio/dndf.scs
Reading file:  /home/saul/pkg/xfab/XKIT/xh018/cadence/v9_0/spectre/v9_0_2/lpmos/models/dio/dpdwhn.scs
Reading file:  /home/saul/pkg/xfab/XKIT/xh018/cadence/v9_0/spectre/v9_0_2/lpmos/models/dio/dwhn.scs
Reading file:  /home/saul/pkg/xfab/XKIT/xh018/cadence/v9_0/spectre/v9_0_2/lpmos/models/dio/dpwhn.scs
Reading file:  /home/saul/pkg/xfab/XKIT/xh018/cadence/v9_0/spectre/v9_0_2/lpmos/models/dio/dpndf.scs
Reading file:  /home/saul/pkg/xfab/XKIT/xh018/cadence/v9_0/spectre/v9_0_2/lpmos/models/dio/dpdddnw.scs
Reading file:  /home/saul/pkg/xfab/XKIT/xh018/cadence/v9_0/spectre/v9_0_2/lpmos/models/dio/ddpldnw.scs
Reading file:  /home/saul/pkg/xfab/XKIT/xh018/cadence/v9_0/spectre/v9_0_2/lpmos/models/dio/dn3dpl.scs
Reading file:  /home/saul/pkg/xfab/XKIT/xh018/cadence/v9_0/spectre/v9_0_2/lpmos/models/dio/dbn.scs
Reading file:  /home/saul/pkg/xfab/XKIT/xh018/cadence/v9_0/spectre/v9_0_2/lpmos/models/dio/dpol.scs
Reading file:  /home/saul/pkg/xfab/XKIT/xh018/cadence/v9_0/spectre/v9_0_2/lpmos/models/dio/dnpdd_scr.scs
Reading file:  /home/saul/pkg/xfab/XKIT/xh018/cadence/v9_0/spectre/v9_0_2/lpmos/models/dio/dpdd_scr.scs
Reading file:  /home/saul/pkg/xfab/XKIT/xh018/cadence/v9_0/spectre/v9_0_2/lpmos/models/dio/dsb.scs
Reading file:  /home/saul/pkg/xfab/XKIT/xh018/cadence/v9_0/spectre/v9_0_2/lpmos/models/dio/dsba.scs
Reading file:  /home/saul/pkg/xfab/XKIT/xh018/cadence/v9_0/spectre/v9_0_2/lpmos/models/dio/dsba_qp1.scs
Reading file:  /home/saul/pkg/xfab/XKIT/xh018/cadence/v9_0/spectre/v9_0_2/lpmos/models/dio/dnp20.scs
Reading file:  /home/saul/pkg/xfab/XKIT/xh018/cadence/v9_0/spectre/v9_0_2/lpmos/models/dio/dpp20.scs
Reading file:  /home/saul/pkg/xfab/XKIT/xh018/cadence/v9_0/spectre/v9_0_2/lpmos/models/dio/dn3sci.scs
Reading file:  /home/saul/pkg/xfab/XKIT/xh018/cadence/v9_0/spectre/v9_0_2/lpmos/models/dio/dscidnwmv.scs
Reading file:  /home/saul/pkg/xfab/XKIT/xh018/cadence/v9_0/spectre/v9_0_2/lpmos/mos.scs
Reading file:  /home/saul/pkg/xfab/XKIT/xh018/cadence/v9_0/spectre/v9_0_2/lpmos/models/mos/tm_mos.scs
Reading file:  /home/saul/pkg/xfab/XKIT/xh018/cadence/v9_0/spectre/v9_0_2/lpmos/models/mos/ne.scs
Reading file:  /home/saul/pkg/xfab/XKIT/xh018/cadence/v9_0/spectre/v9_0_2/lpmos/models/mos/nei.scs
Reading file:  /home/saul/pkg/xfab/XKIT/xh018/cadence/v9_0/spectre/v9_0_2/lpmos/models/mos/nei_6.scs
Reading file:  /home/saul/pkg/xfab/XKIT/xh018/cadence/v9_0/spectre/v9_0_2/lpmos/models/mos/nei_m_6.scs
Reading file:  /home/saul/pkg/xfab/XKIT/xh018/cadence/v9_0/spectre/v9_0_2/lpmos/models/mos/pe.scs
Reading file:  /home/saul/pkg/xfab/XKIT/xh018/cadence/v9_0/spectre/v9_0_2/lpmos/models/mos/pe_5.scs
Reading file:  /home/saul/pkg/xfab/XKIT/xh018/cadence/v9_0/spectre/v9_0_2/lpmos/models/mos/pei.scs
Reading file:  /home/saul/pkg/xfab/XKIT/xh018/cadence/v9_0/spectre/v9_0_2/lpmos/models/mos/pei_5.scs
Reading file:  /home/saul/pkg/xfab/XKIT/xh018/cadence/v9_0/spectre/v9_0_2/lpmos/models/mos/pei_m_5.scs
Reading file:  /home/saul/pkg/xfab/XKIT/xh018/cadence/v9_0/spectre/v9_0_2/lpmos/models/mos/nel.scs
Reading file:  /home/saul/pkg/xfab/XKIT/xh018/cadence/v9_0/spectre/v9_0_2/lpmos/models/mos/neli.scs
Reading file:  /home/saul/pkg/xfab/XKIT/xh018/cadence/v9_0/spectre/v9_0_2/lpmos/models/mos/neli_6.scs
Reading file:  /home/saul/pkg/xfab/XKIT/xh018/cadence/v9_0/spectre/v9_0_2/lpmos/models/mos/neli_m_6.scs
Reading file:  /home/saul/pkg/xfab/XKIT/xh018/cadence/v9_0/spectre/v9_0_2/lpmos/models/mos/pel.scs
Reading file:  /home/saul/pkg/xfab/XKIT/xh018/cadence/v9_0/spectre/v9_0_2/lpmos/models/mos/pel_5.scs
Reading file:  /home/saul/pkg/xfab/XKIT/xh018/cadence/v9_0/spectre/v9_0_2/lpmos/models/mos/peli.scs
Reading file:  /home/saul/pkg/xfab/XKIT/xh018/cadence/v9_0/spectre/v9_0_2/lpmos/models/mos/peli_5.scs
Reading file:  /home/saul/pkg/xfab/XKIT/xh018/cadence/v9_0/spectre/v9_0_2/lpmos/models/mos/peli_m_5.scs
Reading file:  /home/saul/pkg/xfab/XKIT/xh018/cadence/v9_0/spectre/v9_0_2/lpmos/models/mos/nn3.scs
Reading file:  /home/saul/pkg/xfab/XKIT/xh018/cadence/v9_0/spectre/v9_0_2/lpmos/models/mos/ne3.scs
Reading file:  /home/saul/pkg/xfab/XKIT/xh018/cadence/v9_0/spectre/v9_0_2/lpmos/models/mos/ne3i.scs
Reading file:  /home/saul/pkg/xfab/XKIT/xh018/cadence/v9_0/spectre/v9_0_2/lpmos/models/mos/ne3i_6.scs
Reading file:  /home/saul/pkg/xfab/XKIT/xh018/cadence/v9_0/spectre/v9_0_2/lpmos/models/mos/ne3i_m_6.scs
Reading file:  /home/saul/pkg/xfab/XKIT/xh018/cadence/v9_0/spectre/v9_0_2/lpmos/models/mos/pe3.scs
Reading file:  /home/saul/pkg/xfab/XKIT/xh018/cadence/v9_0/spectre/v9_0_2/lpmos/models/mos/pe3_5.scs
Reading file:  /home/saul/pkg/xfab/XKIT/xh018/cadence/v9_0/spectre/v9_0_2/lpmos/models/mos/pe3i.scs
Reading file:  /home/saul/pkg/xfab/XKIT/xh018/cadence/v9_0/spectre/v9_0_2/lpmos/models/mos/pe3i_5.scs
Reading file:  /home/saul/pkg/xfab/XKIT/xh018/cadence/v9_0/spectre/v9_0_2/lpmos/models/mos/pe3i_m_5.scs
Reading file:  /home/saul/pkg/xfab/XKIT/xh018/cadence/v9_0/spectre/v9_0_2/lpmos/models/mos/pe3ln.scs
Reading file:  /home/saul/pkg/xfab/XKIT/xh018/cadence/v9_0/spectre/v9_0_2/lpmos/models/mos/pe3ln_5.scs
Reading file:  /home/saul/pkg/xfab/XKIT/xh018/cadence/v9_0/spectre/v9_0_2/lpmos/models/mos/pe3lni.scs
Reading file:  /home/saul/pkg/xfab/XKIT/xh018/cadence/v9_0/spectre/v9_0_2/lpmos/models/mos/pe3lni_5.scs
Reading file:  /home/saul/pkg/xfab/XKIT/xh018/cadence/v9_0/spectre/v9_0_2/lpmos/models/mos/pe3lni_m_5.scs
Reading file:  /home/saul/pkg/xfab/XKIT/xh018/cadence/v9_0/spectre/v9_0_2/lpmos/models/mos/nd3.scs
Reading file:  /home/saul/pkg/xfab/XKIT/xh018/cadence/v9_0/spectre/v9_0_2/lpmos/models/mos/nd3_mos1.scs
Reading file:  /home/saul/pkg/xfab/XKIT/xh018/cadence/v9_0/spectre/v9_0_2/lpmos/models/mos/nd3_mos2.scs
Reading file:  /home/saul/pkg/xfab/XKIT/xh018/cadence/v9_0/spectre/v9_0_2/lpmos/models/mos/nd3i.scs
Reading file:  /home/saul/pkg/xfab/XKIT/xh018/cadence/v9_0/spectre/v9_0_2/lpmos/models/mos/nd3i_mos1.scs
Reading file:  /home/saul/pkg/xfab/XKIT/xh018/cadence/v9_0/spectre/v9_0_2/lpmos/models/mos/nd3i_mos2.scs
Reading file:  /home/saul/pkg/xfab/XKIT/xh018/cadence/v9_0/spectre/v9_0_2/lpmos/models/mos/nd3i_6.scs
Reading file:  /home/saul/pkg/xfab/XKIT/xh018/cadence/v9_0/spectre/v9_0_2/lpmos/models/mos/nd3i_m_6.scs
Reading file:  /home/saul/pkg/xfab/XKIT/xh018/cadence/v9_0/spectre/v9_0_2/lpmos/models/mos/nelna.scs
Reading file:  /home/saul/pkg/xfab/XKIT/xh018/cadence/v9_0/spectre/v9_0_2/lpmos/models/mos/nelnai.scs
Reading file:  /home/saul/pkg/xfab/XKIT/xh018/cadence/v9_0/spectre/v9_0_2/lpmos/models/mos/nelnai_6.scs
Reading file:  /home/saul/pkg/xfab/XKIT/xh018/cadence/v9_0/spectre/v9_0_2/lpmos/models/mos/nelnai_m_6.scs
Reading file:  /home/saul/pkg/xfab/XKIT/xh018/cadence/v9_0/spectre/v9_0_2/lpmos/models/mos/ne3lna.scs
Reading file:  /home/saul/pkg/xfab/XKIT/xh018/cadence/v9_0/spectre/v9_0_2/lpmos/models/mos/ne3lnai.scs
Reading file:  /home/saul/pkg/xfab/XKIT/xh018/cadence/v9_0/spectre/v9_0_2/lpmos/models/mos/ne3lnai_6.scs
Reading file:  /home/saul/pkg/xfab/XKIT/xh018/cadence/v9_0/spectre/v9_0_2/lpmos/models/mos/ne3lnai_m_6.scs
Reading file:  /home/saul/pkg/xfab/XKIT/xh018/cadence/v9_0/spectre/v9_0_2/lpmos/models/mos/pe3lna.scs
Reading file:  /home/saul/pkg/xfab/XKIT/xh018/cadence/v9_0/spectre/v9_0_2/lpmos/models/mos/pe3lna_5.scs
Reading file:  /home/saul/pkg/xfab/XKIT/xh018/cadence/v9_0/spectre/v9_0_2/lpmos/models/mos/pe3lnai.scs
Reading file:  /home/saul/pkg/xfab/XKIT/xh018/cadence/v9_0/spectre/v9_0_2/lpmos/models/mos/pe3lnai_5.scs
Reading file:  /home/saul/pkg/xfab/XKIT/xh018/cadence/v9_0/spectre/v9_0_2/lpmos/models/mos/pe3lnai_m_5.scs
Reading file:  /home/saul/pkg/xfab/XKIT/xh018/cadence/v9_0/spectre/v9_0_2/lpmos/models/mos/nmma.scs
Reading file:  /home/saul/pkg/xfab/XKIT/xh018/cadence/v9_0/spectre/v9_0_2/lpmos/models/mos/jf_nmma.scs
Reading file:  /home/saul/pkg/xfab/XKIT/xh018/cadence/v9_0/spectre/v9_0_2/lpmos/models/mos/nmma_bjt.scs
Reading file:  /home/saul/pkg/xfab/XKIT/xh018/cadence/v9_0/spectre/v9_0_2/lpmos/models/mos/pmma.scs
Reading file:  /home/saul/pkg/xfab/XKIT/xh018/cadence/v9_0/spectre/v9_0_2/lpmos/models/mos/jf_pmma.scs
Reading file:  /home/saul/pkg/xfab/XKIT/xh018/cadence/v9_0/spectre/v9_0_2/lpmos/models/mos/pmma_bjt.scs
Reading file:  /home/saul/pkg/xfab/XKIT/xh018/cadence/v9_0/spectre/v9_0_2/lpmos/models/mos/nedi.scs
Reading file:  /home/saul/pkg/xfab/XKIT/xh018/cadence/v9_0/spectre/v9_0_2/lpmos/models/mos/nedi_bjt.scs
Reading file:  /home/saul/pkg/xfab/XKIT/xh018/cadence/v9_0/spectre/v9_0_2/lpmos/models/mos/nedia.scs
Reading file:  /home/saul/pkg/xfab/XKIT/xh018/cadence/v9_0/spectre/v9_0_2/lpmos/models/mos/nedia_bjt.scs
Reading file:  /home/saul/pkg/xfab/XKIT/xh018/cadence/v9_0/spectre/v9_0_2/lpmos/models/mos/ped2.scs
Reading file:  /home/saul/pkg/xfab/XKIT/xh018/cadence/v9_0/spectre/v9_0_2/lpmos/models/mos/ped2_bjt.scs
Reading file:  /home/saul/pkg/xfab/XKIT/xh018/cadence/v9_0/spectre/v9_0_2/lpmos/models/mos/ped.scs
Reading file:  /home/saul/pkg/xfab/XKIT/xh018/cadence/v9_0/spectre/v9_0_2/lpmos/models/mos/ped_bjt.scs
Reading file:  /home/saul/pkg/xfab/XKIT/xh018/cadence/v9_0/spectre/v9_0_2/lpmos/models/mos/nhv.scs
Reading file:  /home/saul/pkg/xfab/XKIT/xh018/cadence/v9_0/spectre/v9_0_2/lpmos/models/mos/nhv_mos2.scs
Reading file:  /home/saul/pkg/xfab/XKIT/xh018/cadence/v9_0/spectre/v9_0_2/lpmos/models/mos/nhv_bjt.scs
Reading file:  /home/saul/pkg/xfab/XKIT/xh018/cadence/v9_0/spectre/v9_0_2/lpmos/models/mos/nhhv.scs
Reading file:  /home/saul/pkg/xfab/XKIT/xh018/cadence/v9_0/spectre/v9_0_2/lpmos/models/mos/nhhv_mos2.scs
Reading file:  /home/saul/pkg/xfab/XKIT/xh018/cadence/v9_0/spectre/v9_0_2/lpmos/models/mos/nhhv_bjt.scs
Reading file:  /home/saul/pkg/xfab/XKIT/xh018/cadence/v9_0/spectre/v9_0_2/lpmos/models/mos/nmmc.scs
Reading file:  /home/saul/pkg/xfab/XKIT/xh018/cadence/v9_0/spectre/v9_0_2/lpmos/models/mos/nmmc_mos2.scs
Reading file:  /home/saul/pkg/xfab/XKIT/xh018/cadence/v9_0/spectre/v9_0_2/lpmos/models/mos/nmmc_bjt.scs
Reading file:  /home/saul/pkg/xfab/XKIT/xh018/cadence/v9_0/spectre/v9_0_2/lpmos/models/mos/nmmd.scs
Reading file:  /home/saul/pkg/xfab/XKIT/xh018/cadence/v9_0/spectre/v9_0_2/lpmos/models/mos/nmmd_mos2.scs
Reading file:  /home/saul/pkg/xfab/XKIT/xh018/cadence/v9_0/spectre/v9_0_2/lpmos/models/mos/nmmd_bjt.scs
Reading file:  /home/saul/pkg/xfab/XKIT/xh018/cadence/v9_0/spectre/v9_0_2/lpmos/models/mos/nmc.scs
Reading file:  /home/saul/pkg/xfab/XKIT/xh018/cadence/v9_0/spectre/v9_0_2/lpmos/models/mos/nmc_mos2.scs
Reading file:  /home/saul/pkg/xfab/XKIT/xh018/cadence/v9_0/spectre/v9_0_2/lpmos/models/mos/nmc_bjt.scs
Reading file:  /home/saul/pkg/xfab/XKIT/xh018/cadence/v9_0/spectre/v9_0_2/lpmos/models/mos/nma.scs
Reading file:  /home/saul/pkg/xfab/XKIT/xh018/cadence/v9_0/spectre/v9_0_2/lpmos/models/mos/nma_bjt.scs
Reading file:  /home/saul/pkg/xfab/XKIT/xh018/cadence/v9_0/spectre/v9_0_2/lpmos/models/mos/phv.scs
Reading file:  /home/saul/pkg/xfab/XKIT/xh018/cadence/v9_0/spectre/v9_0_2/lpmos/models/mos/phv_mos2.scs
Reading file:  /home/saul/pkg/xfab/XKIT/xh018/cadence/v9_0/spectre/v9_0_2/lpmos/models/mos/phv_bjt.scs
Reading file:  /home/saul/pkg/xfab/XKIT/xh018/cadence/v9_0/spectre/v9_0_2/lpmos/models/mos/phhv.scs
Reading file:  /home/saul/pkg/xfab/XKIT/xh018/cadence/v9_0/spectre/v9_0_2/lpmos/models/mos/phhv_mos2.scs
Reading file:  /home/saul/pkg/xfab/XKIT/xh018/cadence/v9_0/spectre/v9_0_2/lpmos/models/mos/phhv_bjt.scs
Reading file:  /home/saul/pkg/xfab/XKIT/xh018/cadence/v9_0/spectre/v9_0_2/lpmos/models/mos/pmc.scs
Reading file:  /home/saul/pkg/xfab/XKIT/xh018/cadence/v9_0/spectre/v9_0_2/lpmos/models/mos/pmc_mos2.scs
Reading file:  /home/saul/pkg/xfab/XKIT/xh018/cadence/v9_0/spectre/v9_0_2/lpmos/models/mos/pmc_bjt.scs
Reading file:  /home/saul/pkg/xfab/XKIT/xh018/cadence/v9_0/spectre/v9_0_2/lpmos/models/mos/pmmc.scs
Reading file:  /home/saul/pkg/xfab/XKIT/xh018/cadence/v9_0/spectre/v9_0_2/lpmos/models/mos/pmmc_mos2.scs
Reading file:  /home/saul/pkg/xfab/XKIT/xh018/cadence/v9_0/spectre/v9_0_2/lpmos/models/mos/pmmc_bjt.scs
Reading file:  /home/saul/pkg/xfab/XKIT/xh018/cadence/v9_0/spectre/v9_0_2/lpmos/models/mos/pma.scs
Reading file:  /home/saul/pkg/xfab/XKIT/xh018/cadence/v9_0/spectre/v9_0_2/lpmos/models/mos/pma_bjt.scs
Reading file:  /home/saul/pkg/xfab/XKIT/xh018/cadence/v9_0/spectre/v9_0_2/lpmos/models/mos/pmb.scs
Reading file:  /home/saul/pkg/xfab/XKIT/xh018/cadence/v9_0/spectre/v9_0_2/lpmos/models/mos/nesvt.scs
Reading file:  /home/saul/pkg/xfab/XKIT/xh018/cadence/v9_0/spectre/v9_0_2/lpmos/models/mos/nesvti.scs
Reading file:  /home/saul/pkg/xfab/XKIT/xh018/cadence/v9_0/spectre/v9_0_2/lpmos/models/mos/nesvti_6.scs
Reading file:  /home/saul/pkg/xfab/XKIT/xh018/cadence/v9_0/spectre/v9_0_2/lpmos/models/mos/nesvti_m_6.scs
Reading file:  /home/saul/pkg/xfab/XKIT/xh018/cadence/v9_0/spectre/v9_0_2/lpmos/models/mos/pesvt.scs
Reading file:  /home/saul/pkg/xfab/XKIT/xh018/cadence/v9_0/spectre/v9_0_2/lpmos/models/mos/pesvt_5.scs
Reading file:  /home/saul/pkg/xfab/XKIT/xh018/cadence/v9_0/spectre/v9_0_2/lpmos/models/mos/pesvti.scs
Reading file:  /home/saul/pkg/xfab/XKIT/xh018/cadence/v9_0/spectre/v9_0_2/lpmos/models/mos/pesvti_5.scs
Reading file:  /home/saul/pkg/xfab/XKIT/xh018/cadence/v9_0/spectre/v9_0_2/lpmos/models/mos/pesvti_m_5.scs
Reading file:  /home/saul/pkg/xfab/XKIT/xh018/cadence/v9_0/spectre/v9_0_2/lpmos/models/mos/nhvd.scs
Reading file:  /home/saul/pkg/xfab/XKIT/xh018/cadence/v9_0/spectre/v9_0_2/lpmos/models/mos/nhvd_bjt.scs
Reading file:  /home/saul/pkg/xfab/XKIT/xh018/cadence/v9_0/spectre/v9_0_2/lpmos/models/mos/nhhvd.scs
Reading file:  /home/saul/pkg/xfab/XKIT/xh018/cadence/v9_0/spectre/v9_0_2/lpmos/models/mos/nhhvd_bjt.scs
Reading file:  /home/saul/pkg/xfab/XKIT/xh018/cadence/v9_0/spectre/v9_0_2/lpmos/photo.scs
Reading file:  /home/saul/pkg/xfab/XKIT/xh018/cadence/v9_0/spectre/v9_0_2/lpmos/models/photo/tm_pho.scs
Reading file:  /home/saul/pkg/xfab/XKIT/xh018/cadence/v9_0/spectre/v9_0_2/lpmos/models/photo/dphoa.scs
Reading file:  /home/saul/pkg/xfab/XKIT/xh018/cadence/v9_0/spectre/v9_0_2/lpmos/models/photo/dpho.va
Reading link:  /pkg/cadence/installs/SPECTRE231/tools.lnx86/spectre/etc/ahdl/constants.h
Reading file:  /home/saul/cadence/installs/SPECTRE231/tools.lnx86/spectre/etc/ahdl/constants.vams
Reading link:  /pkg/cadence/installs/SPECTRE231/tools.lnx86/spectre/etc/ahdl/discipline.h
Reading file:  /home/saul/cadence/installs/SPECTRE231/tools.lnx86/spectre/etc/ahdl/disciplines.vams
Reading file:  /home/saul/pkg/xfab/XKIT/xh018/cadence/v9_0/spectre/v9_0_2/lpmos/models/photo/dphob.scs
Reading file:  /home/saul/pkg/xfab/XKIT/xh018/cadence/v9_0/spectre/v9_0_2/lpmos/models/photo/dphoc.scs
Reading file:  /home/saul/pkg/xfab/XKIT/xh018/cadence/v9_0/spectre/v9_0_2/lpmos/models/photo/iphoto_uv.va
Reading file:  /home/saul/pkg/xfab/XKIT/xh018/cadence/v9_0/spectre/v9_0_2/lpmos/models/photo/dphoc_cat.scs
Reading file:  /home/saul/pkg/xfab/XKIT/xh018/cadence/v9_0/spectre/v9_0_2/lpmos/models/photo/dphoc0.scs
Reading file:  /home/saul/pkg/xfab/XKIT/xh018/cadence/v9_0/spectre/v9_0_2/lpmos/models/photo/dphoc0_cat.scs
Reading file:  /home/saul/pkg/xfab/XKIT/xh018/cadence/v9_0/spectre/v9_0_2/lpmos/models/photo/dphocfp.scs
Reading file:  /home/saul/pkg/xfab/XKIT/xh018/cadence/v9_0/spectre/v9_0_2/lpmos/models/photo/dphocfp_cat.scs
Reading file:  /home/saul/pkg/xfab/XKIT/xh018/cadence/v9_0/spectre/v9_0_2/lpmos/models/photo/dphod.scs
Reading file:  /home/saul/pkg/xfab/XKIT/xh018/cadence/v9_0/spectre/v9_0_2/lpmos/models/photo/dphod_an1.scs
Reading file:  /home/saul/pkg/xfab/XKIT/xh018/cadence/v9_0/spectre/v9_0_2/lpmos/models/photo/dphod_an2.scs
Reading file:  /home/saul/pkg/xfab/XKIT/xh018/cadence/v9_0/spectre/v9_0_2/lpmos/models/photo/dphod0.scs
Reading file:  /home/saul/pkg/xfab/XKIT/xh018/cadence/v9_0/spectre/v9_0_2/lpmos/models/photo/dphod0_an1.scs
Reading file:  /home/saul/pkg/xfab/XKIT/xh018/cadence/v9_0/spectre/v9_0_2/lpmos/models/photo/dphod0_an2.scs
Reading file:  /home/saul/pkg/xfab/XKIT/xh018/cadence/v9_0/spectre/v9_0_2/lpmos/models/photo/dphodfp.scs
Reading file:  /home/saul/pkg/xfab/XKIT/xh018/cadence/v9_0/spectre/v9_0_2/lpmos/models/photo/dphodfp_an1.scs
Reading file:  /home/saul/pkg/xfab/XKIT/xh018/cadence/v9_0/spectre/v9_0_2/lpmos/models/photo/dphodfp_an2.scs
Reading file:  /home/saul/pkg/xfab/XKIT/xh018/cadence/v9_0/spectre/v9_0_2/lpmos/models/photo/dspada0.scs
Reading file:  /home/saul/pkg/xfab/XKIT/xh018/cadence/v9_0/spectre/v9_0_2/lpmos/models/photo/ispad.va
Reading file:  /home/saul/pkg/xfab/XKIT/xh018/cadence/v9_0/spectre/v9_0_2/lpmos/models/photo/dapb.scs
Reading file:  /home/saul/pkg/xfab/XKIT/xh018/cadence/v9_0/spectre/v9_0_2/lpmos/models/photo/iphoto_apd_trig.va
Reading file:  /home/saul/pkg/xfab/XKIT/xh018/cadence/v9_0/spectre/v9_0_2/lpmos/models/photo/dapb_jun.scs
Reading file:  /home/saul/pkg/xfab/XKIT/xh018/cadence/v9_0/spectre/v9_0_2/lpmos/models/photo/dapb_trig.scs
Reading file:  /home/saul/pkg/xfab/XKIT/xh018/cadence/v9_0/spectre/v9_0_2/lpmos/models/photo/dapb0.scs
Reading file:  /home/saul/pkg/xfab/XKIT/xh018/cadence/v9_0/spectre/v9_0_2/lpmos/models/photo/dapb0_jun.scs
Reading file:  /home/saul/pkg/xfab/XKIT/xh018/cadence/v9_0/spectre/v9_0_2/lpmos/models/photo/dspb.scs
Reading file:  /home/saul/pkg/xfab/XKIT/xh018/cadence/v9_0/spectre/v9_0_2/lpmos/models/photo/ispad_trig.va
Reading file:  /home/saul/pkg/xfab/XKIT/xh018/cadence/v9_0/spectre/v9_0_2/lpmos/models/photo/dspb_jun.scs
Reading file:  /home/saul/pkg/xfab/XKIT/xh018/cadence/v9_0/spectre/v9_0_2/lpmos/models/photo/dspb_trig.scs
Reading file:  /home/saul/pkg/xfab/XKIT/xh018/cadence/v9_0/spectre/v9_0_2/lpmos/models/photo/dspb0.scs
Reading file:  /home/saul/pkg/xfab/XKIT/xh018/cadence/v9_0/spectre/v9_0_2/lpmos/models/photo/dspb0_jun.scs
Reading file:  /home/saul/pkg/xfab/XKIT/xh018/cadence/v9_0/spectre/v9_0_2/lpmos/models/photo/dspbfep.scs
Reading file:  /home/saul/pkg/xfab/XKIT/xh018/cadence/v9_0/spectre/v9_0_2/lpmos/models/photo/dapda.scs
Reading file:  /home/saul/pkg/xfab/XKIT/xh018/cadence/v9_0/spectre/v9_0_2/lpmos/models/photo/iphoto_apd.va
Reading file:  /home/saul/pkg/xfab/XKIT/xh018/cadence/v9_0/spectre/v9_0_2/lpmos/models/photo/dapda_cat.scs
Reading file:  /home/saul/pkg/xfab/XKIT/xh018/cadence/v9_0/spectre/v9_0_2/lpmos/models/photo/dapda0.scs
Reading file:  /home/saul/pkg/xfab/XKIT/xh018/cadence/v9_0/spectre/v9_0_2/lpmos/models/photo/dspada.scs
Reading file:  /home/saul/pkg/xfab/XKIT/xh018/cadence/v9_0/spectre/v9_0_2/lpmos/models/photo/dspada_cat.scs
Reading file:  /home/saul/pkg/xfab/XKIT/xh018/cadence/v9_0/spectre/v9_0_2/lpmos/res.scs
Reading file:  /home/saul/pkg/xfab/XKIT/xh018/cadence/v9_0/spectre/v9_0_2/lpmos/models/res/tm_res.scs
Reading file:  /home/saul/pkg/xfab/XKIT/xh018/cadence/v9_0/spectre/v9_0_2/lpmos/models/res/rdn.scs
Reading file:  /home/saul/pkg/xfab/XKIT/xh018/cadence/v9_0/spectre/v9_0_2/lpmos/models/res/rdn_esd.scs
Reading file:  /home/saul/pkg/xfab/XKIT/xh018/cadence/v9_0/spectre/v9_0_2/lpmos/models/res/rdp.scs
Reading file:  /home/saul/pkg/xfab/XKIT/xh018/cadence/v9_0/spectre/v9_0_2/lpmos/models/res/rdp_io.scs
Reading file:  /home/saul/pkg/xfab/XKIT/xh018/cadence/v9_0/spectre/v9_0_2/lpmos/models/res/rdp_esd.scs
Reading file:  /home/saul/pkg/xfab/XKIT/xh018/cadence/v9_0/spectre/v9_0_2/lpmos/models/res/rnw.scs
Reading file:  /home/saul/pkg/xfab/XKIT/xh018/cadence/v9_0/spectre/v9_0_2/lpmos/models/res/rnw_scr.scs
Reading file:  /home/saul/pkg/xfab/XKIT/xh018/cadence/v9_0/spectre/v9_0_2/lpmos/models/res/rdn3.scs
Reading file:  /home/saul/pkg/xfab/XKIT/xh018/cadence/v9_0/spectre/v9_0_2/lpmos/models/res/rdp3.scs
Reading file:  /home/saul/pkg/xfab/XKIT/xh018/cadence/v9_0/spectre/v9_0_2/lpmos/models/res/rnw3.scs
Reading file:  /home/saul/pkg/xfab/XKIT/xh018/cadence/v9_0/spectre/v9_0_2/lpmos/models/res/rnw3_scr.scs
Reading file:  /home/saul/pkg/xfab/XKIT/xh018/cadence/v9_0/spectre/v9_0_2/lpmos/models/res/rdnwmv.scs
Reading file:  /home/saul/pkg/xfab/XKIT/xh018/cadence/v9_0/spectre/v9_0_2/lpmos/models/res/rnp1.scs
Reading file:  /home/saul/pkg/xfab/XKIT/xh018/cadence/v9_0/spectre/v9_0_2/lpmos/models/res/rnp1_3.scs
Reading file:  /home/saul/pkg/xfab/XKIT/xh018/cadence/v9_0/spectre/v9_0_2/lpmos/models/res/rpp1.scs
Reading file:  /home/saul/pkg/xfab/XKIT/xh018/cadence/v9_0/spectre/v9_0_2/lpmos/models/res/rpp1_3.scs
Reading file:  /home/saul/pkg/xfab/XKIT/xh018/cadence/v9_0/spectre/v9_0_2/lpmos/models/res/rpp1s.scs
Reading file:  /home/saul/pkg/xfab/XKIT/xh018/cadence/v9_0/spectre/v9_0_2/lpmos/models/res/rpp1s_3.scs
Reading file:  /home/saul/pkg/xfab/XKIT/xh018/cadence/v9_0/spectre/v9_0_2/lpmos/models/res/rnp1h.scs
Reading file:  /home/saul/pkg/xfab/XKIT/xh018/cadence/v9_0/spectre/v9_0_2/lpmos/models/res/rnp1h_3.scs
Reading file:  /home/saul/pkg/xfab/XKIT/xh018/cadence/v9_0/spectre/v9_0_2/lpmos/models/res/rpp1k1.scs
Reading file:  /home/saul/pkg/xfab/XKIT/xh018/cadence/v9_0/spectre/v9_0_2/lpmos/models/res/rpp1k1_3.scs
Reading file:  /home/saul/pkg/xfab/XKIT/xh018/cadence/v9_0/spectre/v9_0_2/lpmos/models/res/rctdn.scs
Reading file:  /home/saul/pkg/xfab/XKIT/xh018/cadence/v9_0/spectre/v9_0_2/lpmos/models/res/rctdp.scs
Reading file:  /home/saul/pkg/xfab/XKIT/xh018/cadence/v9_0/spectre/v9_0_2/lpmos/models/res/rctp1.scs
Reading file:  /home/saul/pkg/xfab/XKIT/xh018/cadence/v9_0/spectre/v9_0_2/lpmos/models/res/rsildn.scs
Reading file:  /home/saul/pkg/xfab/XKIT/xh018/cadence/v9_0/spectre/v9_0_2/lpmos/models/res/rsildp.scs
Reading file:  /home/saul/pkg/xfab/XKIT/xh018/cadence/v9_0/spectre/v9_0_2/lpmos/models/res/rsilnp1.scs
Reading file:  /home/saul/pkg/xfab/XKIT/xh018/cadence/v9_0/spectre/v9_0_2/lpmos/models/res/rsilpp1.scs
Reading file:  /home/saul/pkg/xfab/XKIT/xh018/cadence/v9_0/spectre/v9_0_2/lpmos/models/res/rsbdn.scs
Reading file:  /home/saul/pkg/xfab/XKIT/xh018/cadence/v9_0/spectre/v9_0_2/lpmos/models/res/rsbdp.scs
Reading file:  /home/saul/pkg/xfab/XKIT/xh018/cadence/v9_0/spectre/v9_0_2/lpmos/models/res/rsbdn3.scs
Reading file:  /home/saul/pkg/xfab/XKIT/xh018/cadence/v9_0/spectre/v9_0_2/lpmos/models/res/rsbdp3.scs
Reading file:  /home/saul/pkg/xfab/XKIT/xh018/cadence/v9_0/spectre/v9_0_2/lpmos/models/res/rsbnp1.scs
Reading file:  /home/saul/pkg/xfab/XKIT/xh018/cadence/v9_0/spectre/v9_0_2/lpmos/models/res/rsbpp1.scs
Reading file:  /home/saul/pkg/xfab/XKIT/xh018/cadence/v9_0/spectre/v9_0_2/lpmos/models/res/rsbpp1k1.scs
Reading file:  /home/saul/pkg/xfab/XKIT/xh018/cadence/v9_0/spectre/v9_0_2/lpmos/models/res/rm1.scs
Reading file:  /home/saul/pkg/xfab/XKIT/xh018/cadence/v9_0/spectre/v9_0_2/lpmos/models/res/rm2.scs
Reading file:  /home/saul/pkg/xfab/XKIT/xh018/cadence/v9_0/spectre/v9_0_2/lpmos/models/res/rm3.scs
Reading file:  /home/saul/pkg/xfab/XKIT/xh018/cadence/v9_0/spectre/v9_0_2/lpmos/models/res/rm4.scs
Reading file:  /home/saul/pkg/xfab/XKIT/xh018/cadence/v9_0/spectre/v9_0_2/lpmos/models/res/rm5.scs
Reading file:  /home/saul/pkg/xfab/XKIT/xh018/cadence/v9_0/spectre/v9_0_2/lpmos/models/res/rmtp.scs
Reading file:  /home/saul/pkg/xfab/XKIT/xh018/cadence/v9_0/spectre/v9_0_2/lpmos/models/res/rmtpl.scs
Reading file:  /home/saul/pkg/xfab/XKIT/xh018/cadence/v9_0/spectre/v9_0_2/lpmos/models/res/pfuse.scs
Reading file:  /home/saul/pkg/xfab/XKIT/xh018/cadence/v9_0/spectre/v9_0_2/lpmos/models/res/s_res.scs
Time for NDB Parsing: CPU = 171.463 ms, elapsed = 577.739 ms.
Time accumulated: CPU = 219.216 ms, elapsed = 577.742 ms.
Peak resident memory used = 97.7 Mbytes.

Time for Elaboration: CPU = 13.838 ms, elapsed = 13.9642 ms.
Time accumulated: CPU = 233.125 ms, elapsed = 591.776 ms.
Peak resident memory used = 106 Mbytes.


Notice from spectre during hierarchy flattening.
    The value 'psf' specified for the 'checklimitdest' option will no longer be supported in future releases. Use 'spectre -h' to see other recommended values for the 'checklimitdest' option.


Time for EDB Visiting: CPU = 718 us, elapsed = 717.878 us.
Time accumulated: CPU = 233.926 ms, elapsed = 592.577 ms.
Peak resident memory used = 107 Mbytes.


Notice from spectre during initial setup.
    M0.nediamod: Hisim_hv version 2.10 used. Version: 2, Subversion: 1 and Revision: 0. Type is N.
    Multithreading is disabled due to the size of the design being too small.


Global user options:
         psfversion = 1.4.0
            vabstol = 1e-06
            iabstol = 1e-12
               temp = 27
               gmin = 1e-12
             rforce = 1
           maxnotes = 5
           maxwarns = 5
             digits = 5
               cols = 80
             pivrel = 0.001
           sensfile = ../psf/sens.output
     checklimitdest = psf
               save = allpub
             reltol = 0.001
               tnom = 27
             scalem = 1
              scale = 1

Scoped user options:

Circuit inventory:
              nodes 3
              diode 1     
           hisim_hv 1     
          juncap200 1     
           resistor 1     
            vsource 2     

Analysis and control statement inventory:
                 dc 2     
               info 7     

Output statements:
             .probe 0     
           .measure 0     
               save 1     


Notice from spectre during initial setup.
    APS enabled.

Time for parsing: CPU = 3.642 ms, elapsed = 32.7229 ms.
Time accumulated: CPU = 237.632 ms, elapsed = 625.364 ms.
Peak resident memory used = 109 Mbytes.

~~~~~~~~~~~~~~~~~~~~~~
Pre-Simulation Summary
~~~~~~~~~~~~~~~~~~~~~~
   -   (APS) Multi-threading. The recommended number of threads is 1, consider adding +mt=1 on command line.
~~~~~~~~~~~~~~~~~~~~~~

******************
DC Analysis `dcOp'
******************

Opening the PSF file ../psf/dcOp.dc ...
Important parameter values:
    reltol = 1e-03
    abstol(V) = 1 uV
    abstol(I) = 1 pA
    temp = 27 C
    tnom = 27 C
    tempeffects = all
    gmindc = 1 pS
    rabsshort = 1 mOhm

Maximum value achieved for any signal of each quantity: 
V: V(net2) = 1 V
I: I(M0:1) = 3.118 pA
Convergence achieved in 5 iterations.
DC simulation time: CPU = 2.252 ms, elapsed = 17.432 ms.
Total time required for dc analysis `dcOp': CPU = 2.308 ms, elapsed = 17.4849 ms, util. = 13.2%.
Time accumulated: CPU = 243.147 ms, elapsed = 646.072 ms.
Peak resident memory used = 111 Mbytes.

dcOpInfo: writing operating point information to rawfile.

Opening the PSF file ../psf/dcOpInfo.info ...

*********************************
DC Analysis `dc': VDS = (0 -> 40)
*********************************

Opening the PSF file ../psf/dc.dc ...
Important parameter values:
    reltol = 1e-03
    abstol(V) = 1 uV
    abstol(I) = 1 pA
    temp = 27 C
    tnom = 27 C
    tempeffects = all
    gmindc = 1 pS
    rabsshort = 1 mOhm
    dc: VDS = 1            (2.5 %), step = 100e-03      (250 m%)
    dc: VDS = 1.1         (2.75 %), step = 100e-03      (250 m%)
    dc: VDS = 1.2            (3 %), step = 100e-03      (250 m%)
    dc: VDS = 1.3         (3.25 %), step = 100e-03      (250 m%)
    dc: VDS = 1.4          (3.5 %), step = 100e-03      (250 m%)
    dc: VDS = 1.5         (3.75 %), step = 100e-03      (250 m%)
    dc: VDS = 1.6            (4 %), step = 100e-03      (250 m%)
    dc: VDS = 1.7         (4.25 %), step = 100e-03      (250 m%)
    dc: VDS = 1.8          (4.5 %), step = 100e-03      (250 m%)
    dc: VDS = 1.9         (4.75 %), step = 100e-03      (250 m%)
    dc: VDS = 2              (5 %), step = 100e-03      (250 m%)
    dc: VDS = 2.1         (5.25 %), step = 100e-03      (250 m%)
    dc: VDS = 2.2          (5.5 %), step = 100e-03      (250 m%)
    dc: VDS = 2.3         (5.75 %), step = 100e-03      (250 m%)
    dc: VDS = 2.4            (6 %), step = 100e-03      (250 m%)
    dc: VDS = 2.5         (6.25 %), step = 100e-03      (250 m%)
    dc: VDS = 2.6          (6.5 %), step = 100e-03      (250 m%)
    dc: VDS = 2.7         (6.75 %), step = 100e-03      (250 m%)
    dc: VDS = 2.8            (7 %), step = 100e-03      (250 m%)
    dc: VDS = 2.9         (7.25 %), step = 100e-03      (250 m%)
    dc: VDS = 3            (7.5 %), step = 100e-03      (250 m%)
    dc: VDS = 3.1         (7.75 %), step = 100e-03      (250 m%)
    dc: VDS = 3.2            (8 %), step = 100e-03      (250 m%)
    dc: VDS = 3.3         (8.25 %), step = 100e-03      (250 m%)
    dc: VDS = 3.4          (8.5 %), step = 100e-03      (250 m%)
    dc: VDS = 3.5         (8.75 %), step = 100e-03      (250 m%)
    dc: VDS = 3.6            (9 %), step = 100e-03      (250 m%)
    dc: VDS = 3.7         (9.25 %), step = 100e-03      (250 m%)
    dc: VDS = 3.8          (9.5 %), step = 100e-03      (250 m%)
    dc: VDS = 3.9         (9.75 %), step = 100e-03      (250 m%)
    dc: VDS = 4             (10 %), step = 100e-03      (250 m%)
    dc: VDS = 4.1         (10.2 %), step = 100e-03      (250 m%)
    dc: VDS = 4.2         (10.5 %), step = 100e-03      (250 m%)
    dc: VDS = 4.3         (10.8 %), step = 100e-03      (250 m%)
    dc: VDS = 4.4           (11 %), step = 100e-03      (250 m%)
    dc: VDS = 4.5         (11.2 %), step = 100e-03      (250 m%)
    dc: VDS = 4.6         (11.5 %), step = 100e-03      (250 m%)
    dc: VDS = 4.7         (11.8 %), step = 100e-03      (250 m%)
    dc: VDS = 4.8           (12 %), step = 100e-03      (250 m%)
    dc: VDS = 4.9         (12.2 %), step = 100e-03      (250 m%)
    dc: VDS = 5           (12.5 %), step = 100e-03      (250 m%)
    dc: VDS = 5.1         (12.8 %), step = 100e-03      (250 m%)
    dc: VDS = 5.2           (13 %), step = 100e-03      (250 m%)
    dc: VDS = 5.3         (13.2 %), step = 100e-03      (250 m%)
    dc: VDS = 5.4         (13.5 %), step = 100e-03      (250 m%)
    dc: VDS = 5.5         (13.8 %), step = 100e-03      (250 m%)
    dc: VDS = 5.6           (14 %), step = 100e-03      (250 m%)
    dc: VDS = 5.7         (14.2 %), step = 100e-03      (250 m%)
    dc: VDS = 5.8         (14.5 %), step = 100e-03      (250 m%)
    dc: VDS = 5.9         (14.8 %), step = 100e-03      (250 m%)
    dc: VDS = 6             (15 %), step = 100e-03      (250 m%)
    dc: VDS = 6.1         (15.2 %), step = 100e-03      (250 m%)
    dc: VDS = 6.2         (15.5 %), step = 100e-03      (250 m%)
    dc: VDS = 6.3         (15.8 %), step = 100e-03      (250 m%)
    dc: VDS = 6.4           (16 %), step = 100e-03      (250 m%)
    dc: VDS = 6.5         (16.2 %), step = 100e-03      (250 m%)
    dc: VDS = 6.6         (16.5 %), step = 100e-03      (250 m%)
    dc: VDS = 6.7         (16.8 %), step = 100e-03      (250 m%)
    dc: VDS = 6.8           (17 %), step = 100e-03      (250 m%)
    dc: VDS = 6.9         (17.2 %), step = 100e-03      (250 m%)
    dc: VDS = 7           (17.5 %), step = 100e-03      (250 m%)
    dc: VDS = 7.1         (17.8 %), step = 100e-03      (250 m%)
    dc: VDS = 7.2           (18 %), step = 100e-03      (250 m%)
    dc: VDS = 7.3         (18.2 %), step = 100e-03      (250 m%)
    dc: VDS = 7.4         (18.5 %), step = 100e-03      (250 m%)
    dc: VDS = 7.5         (18.8 %), step = 100e-03      (250 m%)
    dc: VDS = 7.6           (19 %), step = 100e-03      (250 m%)
    dc: VDS = 7.7         (19.2 %), step = 100e-03      (250 m%)
    dc: VDS = 7.8         (19.5 %), step = 100e-03      (250 m%)
    dc: VDS = 7.9         (19.8 %), step = 100e-03      (250 m%)
    dc: VDS = 8             (20 %), step = 100e-03      (250 m%)
    dc: VDS = 8.1         (20.2 %), step = 100e-03      (250 m%)
    dc: VDS = 8.2         (20.5 %), step = 100e-03      (250 m%)
    dc: VDS = 8.3         (20.8 %), step = 100e-03      (250 m%)
    dc: VDS = 8.4           (21 %), step = 100e-03      (250 m%)
    dc: VDS = 8.5         (21.2 %), step = 100e-03      (250 m%)
    dc: VDS = 8.6         (21.5 %), step = 100e-03      (250 m%)
    dc: VDS = 8.7         (21.8 %), step = 100e-03      (250 m%)
    dc: VDS = 8.8           (22 %), step = 100e-03      (250 m%)
    dc: VDS = 8.9         (22.2 %), step = 100e-03      (250 m%)
    dc: VDS = 9           (22.5 %), step = 100e-03      (250 m%)
    dc: VDS = 9.1         (22.8 %), step = 100e-03      (250 m%)
    dc: VDS = 9.2           (23 %), step = 100e-03      (250 m%)
    dc: VDS = 9.3         (23.2 %), step = 100e-03      (250 m%)
    dc: VDS = 9.4         (23.5 %), step = 100e-03      (250 m%)
    dc: VDS = 9.5         (23.8 %), step = 100e-03      (250 m%)
    dc: VDS = 9.6           (24 %), step = 100e-03      (250 m%)
    dc: VDS = 9.7         (24.2 %), step = 100e-03      (250 m%)
    dc: VDS = 9.8         (24.5 %), step = 100e-03      (250 m%)
    dc: VDS = 9.9         (24.8 %), step = 100e-03      (250 m%)
    dc: VDS = 10            (25 %), step = 100e-03      (250 m%)
    dc: VDS = 10.1        (25.2 %), step = 100e-03      (250 m%)
    dc: VDS = 10.2        (25.5 %), step = 100e-03      (250 m%)
    dc: VDS = 10.3        (25.8 %), step = 100e-03      (250 m%)
    dc: VDS = 10.4          (26 %), step = 100e-03      (250 m%)
    dc: VDS = 10.5        (26.2 %), step = 100e-03      (250 m%)
    dc: VDS = 10.6        (26.5 %), step = 100e-03      (250 m%)
    dc: VDS = 10.7        (26.8 %), step = 100e-03      (250 m%)
    dc: VDS = 10.8          (27 %), step = 100e-03      (250 m%)
    dc: VDS = 10.9        (27.3 %), step = 100e-03      (250 m%)
    dc: VDS = 11          (27.5 %), step = 100e-03      (250 m%)
    dc: VDS = 11.1        (27.8 %), step = 100e-03      (250 m%)
    dc: VDS = 11.2          (28 %), step = 100e-03      (250 m%)
    dc: VDS = 11.3        (28.2 %), step = 100e-03      (250 m%)
    dc: VDS = 11.4        (28.5 %), step = 100e-03      (250 m%)
    dc: VDS = 11.5        (28.7 %), step = 100e-03      (250 m%)
    dc: VDS = 11.6          (29 %), step = 100e-03      (250 m%)
    dc: VDS = 11.7        (29.2 %), step = 100e-03      (250 m%)
    dc: VDS = 11.8        (29.5 %), step = 100e-03      (250 m%)
    dc: VDS = 11.9        (29.8 %), step = 100e-03      (250 m%)
    dc: VDS = 12            (30 %), step = 100e-03      (250 m%)
    dc: VDS = 12.1        (30.2 %), step = 100e-03      (250 m%)
    dc: VDS = 12.2        (30.5 %), step = 100e-03      (250 m%)
    dc: VDS = 12.3        (30.8 %), step = 100e-03      (250 m%)
    dc: VDS = 12.4          (31 %), step = 100e-03      (250 m%)
    dc: VDS = 12.5        (31.2 %), step = 100e-03      (250 m%)
    dc: VDS = 12.6        (31.5 %), step = 100e-03      (250 m%)
    dc: VDS = 12.7        (31.8 %), step = 100e-03      (250 m%)
    dc: VDS = 12.8          (32 %), step = 100e-03      (250 m%)
    dc: VDS = 12.9        (32.2 %), step = 100e-03      (250 m%)
    dc: VDS = 13          (32.5 %), step = 100e-03      (250 m%)
    dc: VDS = 13.1        (32.8 %), step = 100e-03      (250 m%)
    dc: VDS = 13.2          (33 %), step = 100e-03      (250 m%)
    dc: VDS = 13.3        (33.2 %), step = 100e-03      (250 m%)
    dc: VDS = 13.4        (33.5 %), step = 100e-03      (250 m%)
    dc: VDS = 13.5        (33.8 %), step = 100e-03      (250 m%)
    dc: VDS = 13.6          (34 %), step = 100e-03      (250 m%)
    dc: VDS = 13.7        (34.2 %), step = 100e-03      (250 m%)
    dc: VDS = 13.8        (34.5 %), step = 100e-03      (250 m%)
    dc: VDS = 13.9        (34.8 %), step = 100e-03      (250 m%)
    dc: VDS = 14            (35 %), step = 100e-03      (250 m%)
    dc: VDS = 14.1        (35.2 %), step = 100e-03      (250 m%)
    dc: VDS = 14.2        (35.5 %), step = 100e-03      (250 m%)
    dc: VDS = 14.3        (35.8 %), step = 100e-03      (250 m%)
    dc: VDS = 14.4          (36 %), step = 100e-03      (250 m%)
    dc: VDS = 14.5        (36.2 %), step = 100e-03      (250 m%)
    dc: VDS = 14.6        (36.5 %), step = 100e-03      (250 m%)
    dc: VDS = 14.7        (36.8 %), step = 100e-03      (250 m%)
    dc: VDS = 14.8          (37 %), step = 100e-03      (250 m%)
    dc: VDS = 14.9        (37.2 %), step = 100e-03      (250 m%)
    dc: VDS = 15          (37.5 %), step = 100e-03      (250 m%)
    dc: VDS = 15.1        (37.8 %), step = 100e-03      (250 m%)
    dc: VDS = 15.2          (38 %), step = 100e-03      (250 m%)
    dc: VDS = 15.3        (38.2 %), step = 100e-03      (250 m%)
    dc: VDS = 15.4        (38.5 %), step = 100e-03      (250 m%)
    dc: VDS = 15.5        (38.8 %), step = 100e-03      (250 m%)
    dc: VDS = 15.6          (39 %), step = 100e-03      (250 m%)
    dc: VDS = 15.7        (39.2 %), step = 100e-03      (250 m%)
    dc: VDS = 15.8        (39.5 %), step = 100e-03      (250 m%)
    dc: VDS = 15.9        (39.8 %), step = 100e-03      (250 m%)
    dc: VDS = 16            (40 %), step = 100e-03      (250 m%)
    dc: VDS = 16.1        (40.2 %), step = 100e-03      (250 m%)
    dc: VDS = 16.2        (40.5 %), step = 100e-03      (250 m%)
    dc: VDS = 16.3        (40.8 %), step = 100e-03      (250 m%)
    dc: VDS = 16.4          (41 %), step = 100e-03      (250 m%)
    dc: VDS = 16.5        (41.2 %), step = 100e-03      (250 m%)
    dc: VDS = 16.6        (41.5 %), step = 100e-03      (250 m%)
    dc: VDS = 16.7        (41.8 %), step = 100e-03      (250 m%)
    dc: VDS = 16.8          (42 %), step = 100e-03      (250 m%)
    dc: VDS = 16.9        (42.2 %), step = 100e-03      (250 m%)
    dc: VDS = 17          (42.5 %), step = 100e-03      (250 m%)
    dc: VDS = 17.1        (42.8 %), step = 100e-03      (250 m%)
    dc: VDS = 17.2          (43 %), step = 100e-03      (250 m%)
    dc: VDS = 17.3        (43.2 %), step = 100e-03      (250 m%)
    dc: VDS = 17.4        (43.5 %), step = 100e-03      (250 m%)
    dc: VDS = 17.5        (43.8 %), step = 100e-03      (250 m%)
    dc: VDS = 17.6          (44 %), step = 100e-03      (250 m%)
    dc: VDS = 17.7        (44.2 %), step = 100e-03      (250 m%)
    dc: VDS = 17.8        (44.5 %), step = 100e-03      (250 m%)
    dc: VDS = 17.9        (44.8 %), step = 100e-03      (250 m%)
    dc: VDS = 18            (45 %), step = 100e-03      (250 m%)
    dc: VDS = 18.1        (45.2 %), step = 100e-03      (250 m%)
    dc: VDS = 18.2        (45.5 %), step = 100e-03      (250 m%)
    dc: VDS = 18.3        (45.8 %), step = 100e-03      (250 m%)
    dc: VDS = 18.4          (46 %), step = 100e-03      (250 m%)
    dc: VDS = 18.5        (46.2 %), step = 100e-03      (250 m%)
    dc: VDS = 18.6        (46.5 %), step = 100e-03      (250 m%)
    dc: VDS = 18.7        (46.8 %), step = 100e-03      (250 m%)
    dc: VDS = 18.8          (47 %), step = 100e-03      (250 m%)
    dc: VDS = 18.9        (47.2 %), step = 100e-03      (250 m%)
    dc: VDS = 19          (47.5 %), step = 100e-03      (250 m%)
    dc: VDS = 19.1        (47.8 %), step = 100e-03      (250 m%)
    dc: VDS = 19.2          (48 %), step = 100e-03      (250 m%)
    dc: VDS = 19.3        (48.2 %), step = 100e-03      (250 m%)
    dc: VDS = 19.4        (48.5 %), step = 100e-03      (250 m%)
    dc: VDS = 19.5        (48.8 %), step = 100e-03      (250 m%)
    dc: VDS = 19.6          (49 %), step = 100e-03      (250 m%)
    dc: VDS = 19.7        (49.2 %), step = 100e-03      (250 m%)
    dc: VDS = 19.8        (49.5 %), step = 100e-03      (250 m%)
    dc: VDS = 19.9        (49.8 %), step = 100e-03      (250 m%)
    dc: VDS = 20            (50 %), step = 100e-03      (250 m%)
    dc: VDS = 20.1        (50.2 %), step = 100e-03      (250 m%)
    dc: VDS = 20.2        (50.5 %), step = 100e-03      (250 m%)
    dc: VDS = 20.3        (50.7 %), step = 100e-03      (250 m%)
    dc: VDS = 20.4          (51 %), step = 100e-03      (250 m%)
    dc: VDS = 20.5        (51.2 %), step = 100e-03      (250 m%)
    dc: VDS = 20.6        (51.5 %), step = 100e-03      (250 m%)
    dc: VDS = 20.7        (51.7 %), step = 100e-03      (250 m%)
    dc: VDS = 20.8          (52 %), step = 100e-03      (250 m%)
    dc: VDS = 20.9        (52.2 %), step = 100e-03      (250 m%)
    dc: VDS = 21          (52.5 %), step = 100e-03      (250 m%)
    dc: VDS = 21.1        (52.8 %), step = 100e-03      (250 m%)
    dc: VDS = 21.2          (53 %), step = 100e-03      (250 m%)
    dc: VDS = 21.3        (53.2 %), step = 100e-03      (250 m%)
    dc: VDS = 21.4        (53.5 %), step = 100e-03      (250 m%)
    dc: VDS = 21.5        (53.8 %), step = 100e-03      (250 m%)
    dc: VDS = 21.6          (54 %), step = 100e-03      (250 m%)
    dc: VDS = 21.7        (54.2 %), step = 100e-03      (250 m%)
    dc: VDS = 21.8        (54.5 %), step = 100e-03      (250 m%)
    dc: VDS = 21.9        (54.8 %), step = 100e-03      (250 m%)
    dc: VDS = 22            (55 %), step = 100e-03      (250 m%)
    dc: VDS = 22.1        (55.2 %), step = 100e-03      (250 m%)
    dc: VDS = 22.2        (55.5 %), step = 100e-03      (250 m%)
    dc: VDS = 22.3        (55.8 %), step = 100e-03      (250 m%)
    dc: VDS = 22.4          (56 %), step = 100e-03      (250 m%)
    dc: VDS = 22.5        (56.2 %), step = 100e-03      (250 m%)
    dc: VDS = 22.6        (56.5 %), step = 100e-03      (250 m%)
    dc: VDS = 22.7        (56.8 %), step = 100e-03      (250 m%)
    dc: VDS = 22.8          (57 %), step = 100e-03      (250 m%)
    dc: VDS = 22.9        (57.2 %), step = 100e-03      (250 m%)
    dc: VDS = 23          (57.5 %), step = 100e-03      (250 m%)
    dc: VDS = 23.1        (57.8 %), step = 100e-03      (250 m%)
    dc: VDS = 23.2          (58 %), step = 100e-03      (250 m%)
    dc: VDS = 23.3        (58.2 %), step = 100e-03      (250 m%)
    dc: VDS = 23.4        (58.5 %), step = 100e-03      (250 m%)
    dc: VDS = 23.5        (58.8 %), step = 100e-03      (250 m%)
    dc: VDS = 23.6          (59 %), step = 100e-03      (250 m%)
    dc: VDS = 23.7        (59.2 %), step = 100e-03      (250 m%)
    dc: VDS = 23.8        (59.5 %), step = 100e-03      (250 m%)
    dc: VDS = 23.9        (59.8 %), step = 100e-03      (250 m%)
    dc: VDS = 24            (60 %), step = 100e-03      (250 m%)
    dc: VDS = 24.1        (60.2 %), step = 100e-03      (250 m%)
    dc: VDS = 24.2        (60.5 %), step = 100e-03      (250 m%)
    dc: VDS = 24.3        (60.8 %), step = 100e-03      (250 m%)
    dc: VDS = 24.4          (61 %), step = 100e-03      (250 m%)
    dc: VDS = 24.5        (61.3 %), step = 100e-03      (250 m%)
    dc: VDS = 24.6        (61.5 %), step = 100e-03      (250 m%)
    dc: VDS = 24.7        (61.8 %), step = 100e-03      (250 m%)
    dc: VDS = 24.8          (62 %), step = 100e-03      (250 m%)
    dc: VDS = 24.9        (62.3 %), step = 100e-03      (250 m%)
    dc: VDS = 25          (62.5 %), step = 100e-03      (250 m%)
    dc: VDS = 25.1        (62.7 %), step = 100e-03      (250 m%)
    dc: VDS = 25.2          (63 %), step = 100e-03      (250 m%)
    dc: VDS = 25.3        (63.2 %), step = 100e-03      (250 m%)
    dc: VDS = 25.4        (63.5 %), step = 100e-03      (250 m%)
    dc: VDS = 25.5        (63.7 %), step = 100e-03      (250 m%)
    dc: VDS = 25.6          (64 %), step = 100e-03      (250 m%)
    dc: VDS = 25.7        (64.2 %), step = 100e-03      (250 m%)
    dc: VDS = 25.8        (64.5 %), step = 100e-03      (250 m%)
    dc: VDS = 25.9        (64.8 %), step = 100e-03      (250 m%)
    dc: VDS = 26            (65 %), step = 100e-03      (250 m%)
    dc: VDS = 26.1        (65.2 %), step = 100e-03      (250 m%)
    dc: VDS = 26.2        (65.5 %), step = 100e-03      (250 m%)
    dc: VDS = 26.3        (65.8 %), step = 100e-03      (250 m%)
    dc: VDS = 26.4          (66 %), step = 100e-03      (250 m%)
    dc: VDS = 26.5        (66.2 %), step = 100e-03      (250 m%)
    dc: VDS = 26.6        (66.5 %), step = 100e-03      (250 m%)
    dc: VDS = 26.7        (66.8 %), step = 100e-03      (250 m%)
    dc: VDS = 26.8          (67 %), step = 100e-03      (250 m%)
    dc: VDS = 26.9        (67.2 %), step = 100e-03      (250 m%)
    dc: VDS = 27          (67.5 %), step = 100e-03      (250 m%)
    dc: VDS = 27.1        (67.8 %), step = 100e-03      (250 m%)
    dc: VDS = 27.2          (68 %), step = 100e-03      (250 m%)
    dc: VDS = 27.3        (68.2 %), step = 100e-03      (250 m%)
    dc: VDS = 27.4        (68.5 %), step = 100e-03      (250 m%)
    dc: VDS = 27.5        (68.8 %), step = 100e-03      (250 m%)
    dc: VDS = 27.6          (69 %), step = 100e-03      (250 m%)
    dc: VDS = 27.7        (69.2 %), step = 100e-03      (250 m%)
    dc: VDS = 27.8        (69.5 %), step = 100e-03      (250 m%)
    dc: VDS = 27.9        (69.8 %), step = 100e-03      (250 m%)
    dc: VDS = 28            (70 %), step = 100e-03      (250 m%)
    dc: VDS = 28.1        (70.2 %), step = 100e-03      (250 m%)
    dc: VDS = 28.2        (70.5 %), step = 100e-03      (250 m%)
    dc: VDS = 28.3        (70.8 %), step = 100e-03      (250 m%)
    dc: VDS = 28.4          (71 %), step = 100e-03      (250 m%)
    dc: VDS = 28.5        (71.2 %), step = 100e-03      (250 m%)
    dc: VDS = 28.6        (71.5 %), step = 100e-03      (250 m%)
    dc: VDS = 28.7        (71.8 %), step = 100e-03      (250 m%)
    dc: VDS = 28.8          (72 %), step = 100e-03      (250 m%)
    dc: VDS = 28.9        (72.2 %), step = 100e-03      (250 m%)
    dc: VDS = 29          (72.5 %), step = 100e-03      (250 m%)
    dc: VDS = 29.1        (72.8 %), step = 100e-03      (250 m%)
    dc: VDS = 29.2          (73 %), step = 100e-03      (250 m%)
    dc: VDS = 29.3        (73.2 %), step = 100e-03      (250 m%)
    dc: VDS = 29.4        (73.5 %), step = 100e-03      (250 m%)
    dc: VDS = 29.5        (73.8 %), step = 100e-03      (250 m%)
    dc: VDS = 29.6          (74 %), step = 100e-03      (250 m%)
    dc: VDS = 29.7        (74.2 %), step = 100e-03      (250 m%)
    dc: VDS = 29.8        (74.5 %), step = 100e-03      (250 m%)
    dc: VDS = 29.9        (74.8 %), step = 100e-03      (250 m%)
    dc: VDS = 30            (75 %), step = 100e-03      (250 m%)
    dc: VDS = 30.1        (75.2 %), step = 100e-03      (250 m%)
    dc: VDS = 30.2        (75.5 %), step = 100e-03      (250 m%)
    dc: VDS = 30.3        (75.8 %), step = 100e-03      (250 m%)
    dc: VDS = 30.4          (76 %), step = 100e-03      (250 m%)
    dc: VDS = 30.5        (76.2 %), step = 100e-03      (250 m%)
    dc: VDS = 30.6        (76.5 %), step = 100e-03      (250 m%)
    dc: VDS = 30.7        (76.8 %), step = 100e-03      (250 m%)
    dc: VDS = 30.8          (77 %), step = 100e-03      (250 m%)
    dc: VDS = 30.9        (77.2 %), step = 100e-03      (250 m%)
    dc: VDS = 31          (77.5 %), step = 100e-03      (250 m%)
    dc: VDS = 31.1        (77.8 %), step = 100e-03      (250 m%)
    dc: VDS = 31.2          (78 %), step = 100e-03      (250 m%)
    dc: VDS = 31.3        (78.2 %), step = 100e-03      (250 m%)
    dc: VDS = 31.4        (78.5 %), step = 100e-03      (250 m%)
    dc: VDS = 31.5        (78.8 %), step = 100e-03      (250 m%)
    dc: VDS = 31.6          (79 %), step = 100e-03      (250 m%)
    dc: VDS = 31.7        (79.2 %), step = 100e-03      (250 m%)
    dc: VDS = 31.8        (79.5 %), step = 100e-03      (250 m%)
    dc: VDS = 31.9        (79.8 %), step = 100e-03      (250 m%)
    dc: VDS = 32            (80 %), step = 100e-03      (250 m%)
    dc: VDS = 32.1        (80.2 %), step = 100e-03      (250 m%)
    dc: VDS = 32.2        (80.5 %), step = 100e-03      (250 m%)
    dc: VDS = 32.3        (80.8 %), step = 100e-03      (250 m%)
    dc: VDS = 32.4          (81 %), step = 100e-03      (250 m%)
    dc: VDS = 32.5        (81.2 %), step = 100e-03      (250 m%)
    dc: VDS = 32.6        (81.5 %), step = 100e-03      (250 m%)
    dc: VDS = 32.7        (81.8 %), step = 100e-03      (250 m%)
    dc: VDS = 32.8          (82 %), step = 100e-03      (250 m%)
    dc: VDS = 32.9        (82.2 %), step = 100e-03      (250 m%)
    dc: VDS = 33          (82.5 %), step = 100e-03      (250 m%)
    dc: VDS = 33.1        (82.8 %), step = 100e-03      (250 m%)
    dc: VDS = 33.2          (83 %), step = 100e-03      (250 m%)
    dc: VDS = 33.3        (83.2 %), step = 100e-03      (250 m%)
    dc: VDS = 33.4        (83.5 %), step = 100e-03      (250 m%)
    dc: VDS = 33.5        (83.8 %), step = 100e-03      (250 m%)
    dc: VDS = 33.6          (84 %), step = 100e-03      (250 m%)
    dc: VDS = 33.7        (84.2 %), step = 100e-03      (250 m%)
    dc: VDS = 33.8        (84.5 %), step = 100e-03      (250 m%)
    dc: VDS = 33.9        (84.8 %), step = 100e-03      (250 m%)
    dc: VDS = 34            (85 %), step = 100e-03      (250 m%)
    dc: VDS = 34.1        (85.2 %), step = 100e-03      (250 m%)
    dc: VDS = 34.2        (85.5 %), step = 100e-03      (250 m%)
    dc: VDS = 34.3        (85.8 %), step = 100e-03      (250 m%)
    dc: VDS = 34.4          (86 %), step = 100e-03      (250 m%)
    dc: VDS = 34.5        (86.2 %), step = 100e-03      (250 m%)
    dc: VDS = 34.6        (86.5 %), step = 100e-03      (250 m%)
    dc: VDS = 34.7        (86.8 %), step = 100e-03      (250 m%)
    dc: VDS = 34.8          (87 %), step = 100e-03      (250 m%)
    dc: VDS = 34.9        (87.2 %), step = 100e-03      (250 m%)
    dc: VDS = 35          (87.5 %), step = 100e-03      (250 m%)
    dc: VDS = 35.1        (87.8 %), step = 100e-03      (250 m%)
    dc: VDS = 35.2          (88 %), step = 100e-03      (250 m%)
    dc: VDS = 35.3        (88.2 %), step = 100e-03      (250 m%)
    dc: VDS = 35.4        (88.5 %), step = 100e-03      (250 m%)
    dc: VDS = 35.5        (88.8 %), step = 100e-03      (250 m%)
    dc: VDS = 35.6          (89 %), step = 100e-03      (250 m%)
    dc: VDS = 35.7        (89.2 %), step = 100e-03      (250 m%)
    dc: VDS = 35.8        (89.5 %), step = 100e-03      (250 m%)
    dc: VDS = 35.9        (89.8 %), step = 100e-03      (250 m%)
    dc: VDS = 36            (90 %), step = 100e-03      (250 m%)
    dc: VDS = 36.1        (90.2 %), step = 100e-03      (250 m%)
    dc: VDS = 36.2        (90.5 %), step = 100e-03      (250 m%)
    dc: VDS = 36.3        (90.8 %), step = 100e-03      (250 m%)
    dc: VDS = 36.4          (91 %), step = 100e-03      (250 m%)
    dc: VDS = 36.5        (91.2 %), step = 100e-03      (250 m%)
    dc: VDS = 36.6        (91.5 %), step = 100e-03      (250 m%)
    dc: VDS = 36.7        (91.8 %), step = 100e-03      (250 m%)
    dc: VDS = 36.8          (92 %), step = 100e-03      (250 m%)
    dc: VDS = 36.9        (92.2 %), step = 100e-03      (250 m%)
    dc: VDS = 37          (92.5 %), step = 100e-03      (250 m%)
    dc: VDS = 37.1        (92.8 %), step = 100e-03      (250 m%)
    dc: VDS = 37.2          (93 %), step = 100e-03      (250 m%)
    dc: VDS = 37.3        (93.2 %), step = 100e-03      (250 m%)
    dc: VDS = 37.4        (93.5 %), step = 100e-03      (250 m%)
    dc: VDS = 37.5        (93.8 %), step = 100e-03      (250 m%)
    dc: VDS = 37.6          (94 %), step = 100e-03      (250 m%)
    dc: VDS = 37.7        (94.2 %), step = 100e-03      (250 m%)
    dc: VDS = 37.8        (94.5 %), step = 100e-03      (250 m%)
    dc: VDS = 37.9        (94.8 %), step = 100e-03      (250 m%)
    dc: VDS = 38            (95 %), step = 100e-03      (250 m%)
    dc: VDS = 38.1        (95.2 %), step = 100e-03      (250 m%)
    dc: VDS = 38.2        (95.5 %), step = 100e-03      (250 m%)
    dc: VDS = 38.3        (95.8 %), step = 100e-03      (250 m%)
    dc: VDS = 38.4          (96 %), step = 100e-03      (250 m%)
    dc: VDS = 38.5        (96.2 %), step = 100e-03      (250 m%)
    dc: VDS = 38.6        (96.5 %), step = 100e-03      (250 m%)
    dc: VDS = 38.7        (96.8 %), step = 100e-03      (250 m%)
    dc: VDS = 38.8          (97 %), step = 100e-03      (250 m%)
    dc: VDS = 38.9        (97.2 %), step = 100e-03      (250 m%)
    dc: VDS = 39          (97.5 %), step = 100e-03      (250 m%)
    dc: VDS = 39.1        (97.8 %), step = 100e-03      (250 m%)
    dc: VDS = 39.2          (98 %), step = 100e-03      (250 m%)
    dc: VDS = 39.3        (98.2 %), step = 100e-03      (250 m%)
    dc: VDS = 39.4        (98.5 %), step = 100e-03      (250 m%)
    dc: VDS = 39.5        (98.8 %), step = 100e-03      (250 m%)
    dc: VDS = 39.6          (99 %), step = 100e-03      (250 m%)
    dc: VDS = 39.7        (99.2 %), step = 100e-03      (250 m%)
    dc: VDS = 39.8        (99.5 %), step = 100e-03      (250 m%)
    dc: VDS = 39.9        (99.8 %), step = 100e-03      (250 m%)
    dc: VDS = 40           (100 %), step = 100e-03      (250 m%)

Maximum value achieved for any signal of each quantity: 
V: V(net2) = 40 V
I: I(M0:1) = 120.3 pA
DC simulation time: CPU = 32.968 ms, elapsed = 38.0549 ms.

Notice from spectre at VDS = 40 during DC analysis `dc'.
    The value of parameter 'VDS' has been reset to the original value 1.

Total time required for dc analysis `dc': CPU = 32.99 ms, elapsed = 38.0781 ms, util. = 86.6%.
Time accumulated: CPU = 277.934 ms, elapsed = 690.115 ms.
Peak resident memory used = 112 Mbytes.

modelParameter: writing model parameter values to rawfile.

Opening the PSF file ../psf/modelParameter.info ...
element: writing instance parameter values to rawfile.

Opening the PSF file ../psf/element.info ...
outputParameter: writing output parameter values to rawfile.

Opening the PSF file ../psf/outputParameter.info ...
designParamVals: writing netlist parameters to rawfile.

Opening the PSFASCII file ../psf/designParamVals.info ...
primitives: writing primitives to rawfile.

Opening the PSFASCII file ../psf/primitives.info.primitives ...
subckts: writing subcircuits to rawfile.

Opening the PSFASCII file ../psf/subckts.info.subckts ...
Licensing Information:
Lic Summary:
[02:02:04.436090] Cdslmd servers:3000@lic08.ug.kth.se
[02:02:04.436099] Feature usage summary:
[02:02:04.436099] Virtuoso_Multi_mode_Simulation


Aggregate audit (2:02:04 AM, Mon Feb 5, 2024):
Time used: CPU = 292 ms, elapsed = 766 ms, util. = 38.1%.
Time spent in licensing: elapsed = 696 ms, percentage of total = 90.9%.
Peak memory used = 113 Mbytes.
Simulation started at: 2:02:04 AM, Mon Feb 5, 2024, ended at: 2:02:04 AM, Mon Feb 5, 2024, with elapsed time (wall clock): 766 ms.
spectre completes with 0 errors, 0 warnings, and 6 notices.


********* LOG ENDS **************
**                             **
**                             **
********* LOG STARTS ************



Spectre (R) Circuit Simulator
Version 23.1.0.305.isr3 64bit -- 13 Nov 2023
Copyright (C) 1989-2023 Cadence Design Systems, Inc. All rights reserved worldwide. Cadence and Spectre are registered trademarks of Cadence Design Systems, Inc. All others are the property of their respective holders.

Includes RSA BSAFE(R) Cryptographic or Security Protocol Software from RSA Security, Inc.

User: saul   Host: phoenix   HostID: A0F02   PID: 29005
Memory  available: 11.8460 GB  physical: 16.6560 GB
Linux   : CentOS Linux release 7 (Core)
CPU Type: 11th Gen Intel(R) Core(TM) i7-11700K @ 3.60GHz
All processors running at 3600.0 MHz
        Socket: Processors
        0:       0,  1,  2,  3,  4,  5
        
System load averages (1min, 5min, 15min) : 4.2 %, 3.3 %, 1.8 %
HPC is enabled


Simulating `input.scs' on phoenix at 2:02:04 AM, Mon Feb 5, 2024 (process id: 29005).
Current working directory: /home/saul/projects/XH018_mixed_ji3/test_mix/virtuoso/Sim/INV_HV/nedia_dc/adexl/results/data/Interactive.4/2/INV_HV:nedia_dc:1/netlist
Command line:
    /pkg/cadence/installs/SPECTRE231/tools/bin/spectre -64 input.scs  \
        +escchars +log ../psf/spectre.out -format psfxl -raw ../psf  \
        +aps +mt +lqtimeout 900 -maxw 5 -maxn 5 -env ade -ahdllibdir  \
        /home/saul/projects/XH018_mixed_ji3/test_mix/virtuoso/Sim/INV_HV/nedia_dc/adexl/results/data/Interactive.4/sharedData/Job7/ahdl/input.ahdlSimDB  \
        +logstatus

Licensing Information:
[02:02:04.512321] Configured Lic search path (22.01-s002): 3000@lic08.ug.kth.se

Licensing Information:
[02:02:04.147241] Periodic Lic check successful

Loading /pkg/cadence/installs/SPECTRE231/tools.lnx86/cmi/lib/64bit/5.0/libinfineon_sh.so ...
Loading /pkg/cadence/installs/SPECTRE231/tools.lnx86/cmi/lib/64bit/5.0/libphilips_I_sh.so ...
Loading /pkg/cadence/installs/SPECTRE231/tools.lnx86/cmi/lib/64bit/5.0/libphilips_sh.so ...
Loading /pkg/cadence/installs/SPECTRE231/tools.lnx86/cmi/lib/64bit/5.0/libsparam_sh.so ...
Loading /pkg/cadence/installs/SPECTRE231/tools.lnx86/cmi/lib/64bit/5.0/libstmodels_sh.so ...
Reading file:  /home/saul/projects/XH018_mixed_ji3/test_mix/virtuoso/Sim/INV_HV/nedia_dc/adexl/results/data/Interactive.4/2/INV_HV:nedia_dc:1/netlist/input.scs
Reading link:  /pkg/cadence
Reading file:  /home/saul/cadence/installs/SPECTRE231/tools.lnx86/spectre/etc/configs/spectre.cfg
Reading file:  /home/saul/pkg/xfab/XKIT/xh018/cadence/v9_0/spectre/v9_0_2/lpmos/config.scs
Reading file:  /home/saul/pkg/xfab/XKIT/xh018/cadence/v9_0/spectre/v9_0_2/lpmos/param.scs
Reading file:  /home/saul/pkg/xfab/XKIT/xh018/cadence/v9_0/spectre/v9_0_2/lpmos/bip.scs
Reading file:  /home/saul/pkg/xfab/XKIT/xh018/cadence/v9_0/spectre/v9_0_2/lpmos/models/bip/tm_bip.scs
Reading file:  /home/saul/pkg/xfab/XKIT/xh018/cadence/v9_0/spectre/v9_0_2/lpmos/models/bip/qpva.scs
Reading file:  /home/saul/pkg/xfab/XKIT/xh018/cadence/v9_0/spectre/v9_0_2/lpmos/models/bip/qpvb.scs
Reading file:  /home/saul/pkg/xfab/XKIT/xh018/cadence/v9_0/spectre/v9_0_2/lpmos/models/bip/qpvc.scs
Reading file:  /home/saul/pkg/xfab/XKIT/xh018/cadence/v9_0/spectre/v9_0_2/lpmos/models/bip/qpva3.scs
Reading file:  /home/saul/pkg/xfab/XKIT/xh018/cadence/v9_0/spectre/v9_0_2/lpmos/models/bip/qpvb3.scs
Reading file:  /home/saul/pkg/xfab/XKIT/xh018/cadence/v9_0/spectre/v9_0_2/lpmos/models/bip/qpvc3.scs
Reading file:  /home/saul/pkg/xfab/XKIT/xh018/cadence/v9_0/spectre/v9_0_2/lpmos/models/bip/qnva.scs
Reading file:  /home/saul/pkg/xfab/XKIT/xh018/cadence/v9_0/spectre/v9_0_2/lpmos/models/bip/qnvb.scs
Reading file:  /home/saul/pkg/xfab/XKIT/xh018/cadence/v9_0/spectre/v9_0_2/lpmos/models/bip/qnvb_npn.scs
Reading file:  /home/saul/pkg/xfab/XKIT/xh018/cadence/v9_0/spectre/v9_0_2/lpmos/models/bip/qnvb_pnp.scs
Reading file:  /home/saul/pkg/xfab/XKIT/xh018/cadence/v9_0/spectre/v9_0_2/lpmos/models/bip/qnvc.scs
Reading file:  /home/saul/pkg/xfab/XKIT/xh018/cadence/v9_0/spectre/v9_0_2/lpmos/models/bip/qnvc_npn.scs
Reading file:  /home/saul/pkg/xfab/XKIT/xh018/cadence/v9_0/spectre/v9_0_2/lpmos/models/bip/qnvc_pnp.scs
Reading file:  /home/saul/pkg/xfab/XKIT/xh018/cadence/v9_0/spectre/v9_0_2/lpmos/models/bip/qpvhscr.scs
Reading file:  /home/saul/pkg/xfab/XKIT/xh018/cadence/v9_0/spectre/v9_0_2/lpmos/models/bip/qpvascr.scs
Reading file:  /home/saul/pkg/xfab/XKIT/xh018/cadence/v9_0/spectre/v9_0_2/lpmos/models/bip/qpvhbscr.scs
Reading file:  /home/saul/pkg/xfab/XKIT/xh018/cadence/v9_0/spectre/v9_0_2/lpmos/models/bip/qnvba.scs
Reading file:  /home/saul/pkg/xfab/XKIT/xh018/cadence/v9_0/spectre/v9_0_2/lpmos/models/bip/qnvba_npn.scs
Reading file:  /home/saul/pkg/xfab/XKIT/xh018/cadence/v9_0/spectre/v9_0_2/lpmos/models/bip/qnvba_pnp.scs
Reading file:  /home/saul/pkg/xfab/XKIT/xh018/cadence/v9_0/spectre/v9_0_2/lpmos/models/bip/qnvca.scs
Reading file:  /home/saul/pkg/xfab/XKIT/xh018/cadence/v9_0/spectre/v9_0_2/lpmos/models/bip/qnvca_npn.scs
Reading file:  /home/saul/pkg/xfab/XKIT/xh018/cadence/v9_0/spectre/v9_0_2/lpmos/models/bip/qnvca_pnp.scs
Reading file:  /home/saul/pkg/xfab/XKIT/xh018/cadence/v9_0/spectre/v9_0_2/lpmos/models/bip/qpv_pa.scs
Reading file:  /home/saul/pkg/xfab/XKIT/xh018/cadence/v9_0/spectre/v9_0_2/lpmos/models/bip/qpv_pb.scs
Reading file:  /home/saul/pkg/xfab/XKIT/xh018/cadence/v9_0/spectre/v9_0_2/lpmos/models/bip/qpv_pc.scs
Reading file:  /home/saul/pkg/xfab/XKIT/xh018/cadence/v9_0/spectre/v9_0_2/lpmos/models/bip/qpv_pd.scs
Reading file:  /home/saul/pkg/xfab/XKIT/xh018/cadence/v9_0/spectre/v9_0_2/lpmos/models/bip/qpv_pe.scs
Reading file:  /home/saul/pkg/xfab/XKIT/xh018/cadence/v9_0/spectre/v9_0_2/lpmos/models/bip/qpv_pf.scs
Reading file:  /home/saul/pkg/xfab/XKIT/xh018/cadence/v9_0/spectre/v9_0_2/lpmos/models/bip/qpl_pa.scs
Reading file:  /home/saul/pkg/xfab/XKIT/xh018/cadence/v9_0/spectre/v9_0_2/lpmos/models/bip/qpl_pb.scs
Reading file:  /home/saul/pkg/xfab/XKIT/xh018/cadence/v9_0/spectre/v9_0_2/lpmos/models/bip/qpl_pc.scs
Reading file:  /home/saul/pkg/xfab/XKIT/xh018/cadence/v9_0/spectre/v9_0_2/lpmos/models/bip/qpl_pd.scs
Reading file:  /home/saul/pkg/xfab/XKIT/xh018/cadence/v9_0/spectre/v9_0_2/lpmos/models/bip/qpl_pe.scs
Reading file:  /home/saul/pkg/xfab/XKIT/xh018/cadence/v9_0/spectre/v9_0_2/lpmos/models/bip/qpl_pf.scs
Reading file:  /home/saul/pkg/xfab/XKIT/xh018/cadence/v9_0/spectre/v9_0_2/lpmos/models/bip/qnl_pa.scs
Reading file:  /home/saul/pkg/xfab/XKIT/xh018/cadence/v9_0/spectre/v9_0_2/lpmos/models/bip/qnl_pb.scs
Reading file:  /home/saul/pkg/xfab/XKIT/xh018/cadence/v9_0/spectre/v9_0_2/lpmos/models/bip/qnl_pc.scs
Reading file:  /home/saul/pkg/xfab/XKIT/xh018/cadence/v9_0/spectre/v9_0_2/lpmos/models/bip/qnl_pd.scs
Reading file:  /home/saul/pkg/xfab/XKIT/xh018/cadence/v9_0/spectre/v9_0_2/lpmos/models/bip/qnl_pe.scs
Reading file:  /home/saul/pkg/xfab/XKIT/xh018/cadence/v9_0/spectre/v9_0_2/lpmos/models/bip/qnl_pf.scs
Reading file:  /home/saul/pkg/xfab/XKIT/xh018/cadence/v9_0/spectre/v9_0_2/lpmos/cap.scs
Reading file:  /home/saul/pkg/xfab/XKIT/xh018/cadence/v9_0/spectre/v9_0_2/lpmos/models/cap/tm_cap.scs
Reading file:  /home/saul/pkg/xfab/XKIT/xh018/cadence/v9_0/spectre/v9_0_2/lpmos/models/cap/csandwt3.scs
Reading file:  /home/saul/pkg/xfab/XKIT/xh018/cadence/v9_0/spectre/v9_0_2/lpmos/models/cap/csandwt4.scs
Reading file:  /home/saul/pkg/xfab/XKIT/xh018/cadence/v9_0/spectre/v9_0_2/lpmos/models/cap/csandwt5.scs
Reading file:  /home/saul/pkg/xfab/XKIT/xh018/cadence/v9_0/spectre/v9_0_2/lpmos/models/cap/csf2p.scs
Reading file:  /home/saul/pkg/xfab/XKIT/xh018/cadence/v9_0/spectre/v9_0_2/lpmos/models/cap/csf3p.scs
Reading file:  /home/saul/pkg/xfab/XKIT/xh018/cadence/v9_0/spectre/v9_0_2/lpmos/models/cap/csf3.scs
Reading file:  /home/saul/pkg/xfab/XKIT/xh018/cadence/v9_0/spectre/v9_0_2/lpmos/models/cap/csf4.scs
Reading file:  /home/saul/pkg/xfab/XKIT/xh018/cadence/v9_0/spectre/v9_0_2/lpmos/models/cap/csf5.scs
Reading file:  /home/saul/pkg/xfab/XKIT/xh018/cadence/v9_0/spectre/v9_0_2/lpmos/models/cap/csft4.scs
Reading file:  /home/saul/pkg/xfab/XKIT/xh018/cadence/v9_0/spectre/v9_0_2/lpmos/models/cap/csft5.scs
Reading file:  /home/saul/pkg/xfab/XKIT/xh018/cadence/v9_0/spectre/v9_0_2/lpmos/models/cap/csft6.scs
Reading file:  /home/saul/pkg/xfab/XKIT/xh018/cadence/v9_0/spectre/v9_0_2/lpmos/models/cap/csf3a.scs
Reading file:  /home/saul/pkg/xfab/XKIT/xh018/cadence/v9_0/spectre/v9_0_2/lpmos/models/cap/csf4a.scs
Reading file:  /home/saul/pkg/xfab/XKIT/xh018/cadence/v9_0/spectre/v9_0_2/lpmos/models/cap/csf5a.scs
Reading file:  /home/saul/pkg/xfab/XKIT/xh018/cadence/v9_0/spectre/v9_0_2/lpmos/models/cap/csft4a.scs
Reading file:  /home/saul/pkg/xfab/XKIT/xh018/cadence/v9_0/spectre/v9_0_2/lpmos/models/cap/csft5a.scs
Reading file:  /home/saul/pkg/xfab/XKIT/xh018/cadence/v9_0/spectre/v9_0_2/lpmos/models/cap/csft6a.scs
Reading file:  /home/saul/pkg/xfab/XKIT/xh018/cadence/v9_0/spectre/v9_0_2/lpmos/models/cap/cif3a.scs
Reading file:  /home/saul/pkg/xfab/XKIT/xh018/cadence/v9_0/spectre/v9_0_2/lpmos/models/cap/cif4a.scs
Reading file:  /home/saul/pkg/xfab/XKIT/xh018/cadence/v9_0/spectre/v9_0_2/lpmos/models/cap/cif5a.scs
Reading file:  /home/saul/pkg/xfab/XKIT/xh018/cadence/v9_0/spectre/v9_0_2/lpmos/models/cap/cift4a.scs
Reading file:  /home/saul/pkg/xfab/XKIT/xh018/cadence/v9_0/spectre/v9_0_2/lpmos/models/cap/cift5a.scs
Reading file:  /home/saul/pkg/xfab/XKIT/xh018/cadence/v9_0/spectre/v9_0_2/lpmos/models/cap/cift6a.scs
Reading file:  /home/saul/pkg/xfab/XKIT/xh018/cadence/v9_0/spectre/v9_0_2/lpmos/models/cap/cmm3.scs
Reading file:  /home/saul/pkg/xfab/XKIT/xh018/cadence/v9_0/spectre/v9_0_2/lpmos/models/cap/cmm4t.scs
Reading file:  /home/saul/pkg/xfab/XKIT/xh018/cadence/v9_0/spectre/v9_0_2/lpmos/models/cap/cmm4.scs
Reading file:  /home/saul/pkg/xfab/XKIT/xh018/cadence/v9_0/spectre/v9_0_2/lpmos/models/cap/cmm5t.scs
Reading file:  /home/saul/pkg/xfab/XKIT/xh018/cadence/v9_0/spectre/v9_0_2/lpmos/models/cap/cmm6t.scs
Reading file:  /home/saul/pkg/xfab/XKIT/xh018/cadence/v9_0/spectre/v9_0_2/lpmos/models/cap/cdmm4.scs
Reading file:  /home/saul/pkg/xfab/XKIT/xh018/cadence/v9_0/spectre/v9_0_2/lpmos/models/cap/cdmm4t.scs
Reading file:  /home/saul/pkg/xfab/XKIT/xh018/cadence/v9_0/spectre/v9_0_2/lpmos/models/cap/ctmm5.scs
Reading file:  /home/saul/pkg/xfab/XKIT/xh018/cadence/v9_0/spectre/v9_0_2/lpmos/models/cap/ctmm5t.scs
Reading file:  /home/saul/pkg/xfab/XKIT/xh018/cadence/v9_0/spectre/v9_0_2/lpmos/models/cap/cmmh3.scs
Reading file:  /home/saul/pkg/xfab/XKIT/xh018/cadence/v9_0/spectre/v9_0_2/lpmos/models/cap/cmmh4t.scs
Reading file:  /home/saul/pkg/xfab/XKIT/xh018/cadence/v9_0/spectre/v9_0_2/lpmos/models/cap/cmmh4.scs
Reading file:  /home/saul/pkg/xfab/XKIT/xh018/cadence/v9_0/spectre/v9_0_2/lpmos/models/cap/cmmh5t.scs
Reading file:  /home/saul/pkg/xfab/XKIT/xh018/cadence/v9_0/spectre/v9_0_2/lpmos/models/cap/cmmh6t.scs
Reading file:  /home/saul/pkg/xfab/XKIT/xh018/cadence/v9_0/spectre/v9_0_2/lpmos/models/cap/cdmmh4.scs
[...]
    dc: VDS = 12.1        (30.2 %), step = 100e-03      (250 m%)
    dc: VDS = 12.2        (30.5 %), step = 100e-03      (250 m%)
    dc: VDS = 12.3        (30.8 %), step = 100e-03      (250 m%)
    dc: VDS = 12.4          (31 %), step = 100e-03      (250 m%)
    dc: VDS = 12.5        (31.2 %), step = 100e-03      (250 m%)
    dc: VDS = 12.6        (31.5 %), step = 100e-03      (250 m%)
    dc: VDS = 12.7        (31.8 %), step = 100e-03      (250 m%)
    dc: VDS = 12.8          (32 %), step = 100e-03      (250 m%)
    dc: VDS = 12.9        (32.2 %), step = 100e-03      (250 m%)
    dc: VDS = 13          (32.5 %), step = 100e-03      (250 m%)
    dc: VDS = 13.1        (32.8 %), step = 100e-03      (250 m%)
    dc: VDS = 13.2          (33 %), step = 100e-03      (250 m%)
    dc: VDS = 13.3        (33.2 %), step = 100e-03      (250 m%)
    dc: VDS = 13.4        (33.5 %), step = 100e-03      (250 m%)
    dc: VDS = 13.5        (33.8 %), step = 100e-03      (250 m%)
    dc: VDS = 13.6          (34 %), step = 100e-03      (250 m%)
    dc: VDS = 13.7        (34.2 %), step = 100e-03      (250 m%)
    dc: VDS = 13.8        (34.5 %), step = 100e-03      (250 m%)
    dc: VDS = 13.9        (34.8 %), step = 100e-03      (250 m%)
    dc: VDS = 14            (35 %), step = 100e-03      (250 m%)
    dc: VDS = 14.1        (35.2 %), step = 100e-03      (250 m%)
    dc: VDS = 14.2        (35.5 %), step = 100e-03      (250 m%)
    dc: VDS = 14.3        (35.8 %), step = 100e-03      (250 m%)
    dc: VDS = 14.4          (36 %), step = 100e-03      (250 m%)
    dc: VDS = 14.5        (36.2 %), step = 100e-03      (250 m%)
    dc: VDS = 14.6        (36.5 %), step = 100e-03      (250 m%)
    dc: VDS = 14.7        (36.8 %), step = 100e-03      (250 m%)
    dc: VDS = 14.8          (37 %), step = 100e-03      (250 m%)
    dc: VDS = 14.9        (37.2 %), step = 100e-03      (250 m%)
    dc: VDS = 15          (37.5 %), step = 100e-03      (250 m%)
    dc: VDS = 15.1        (37.8 %), step = 100e-03      (250 m%)
    dc: VDS = 15.2          (38 %), step = 100e-03      (250 m%)
    dc: VDS = 15.3        (38.2 %), step = 100e-03      (250 m%)
    dc: VDS = 15.4        (38.5 %), step = 100e-03      (250 m%)
    dc: VDS = 15.5        (38.8 %), step = 100e-03      (250 m%)
    dc: VDS = 15.6          (39 %), step = 100e-03      (250 m%)
    dc: VDS = 15.7        (39.2 %), step = 100e-03      (250 m%)
    dc: VDS = 15.8        (39.5 %), step = 100e-03      (250 m%)
    dc: VDS = 15.9        (39.8 %), step = 100e-03      (250 m%)
    dc: VDS = 16            (40 %), step = 100e-03      (250 m%)
    dc: VDS = 16.1        (40.2 %), step = 100e-03      (250 m%)
    dc: VDS = 16.2        (40.5 %), step = 100e-03      (250 m%)
    dc: VDS = 16.3        (40.8 %), step = 100e-03      (250 m%)
    dc: VDS = 16.4          (41 %), step = 100e-03      (250 m%)
    dc: VDS = 16.5        (41.2 %), step = 100e-03      (250 m%)
    dc: VDS = 16.6        (41.5 %), step = 100e-03      (250 m%)
    dc: VDS = 16.7        (41.8 %), step = 100e-03      (250 m%)
    dc: VDS = 16.8          (42 %), step = 100e-03      (250 m%)
    dc: VDS = 16.9        (42.2 %), step = 100e-03      (250 m%)
    dc: VDS = 17          (42.5 %), step = 100e-03      (250 m%)
    dc: VDS = 17.1        (42.8 %), step = 100e-03      (250 m%)
    dc: VDS = 17.2          (43 %), step = 100e-03      (250 m%)
    dc: VDS = 17.3        (43.2 %), step = 100e-03      (250 m%)
    dc: VDS = 17.4        (43.5 %), step = 100e-03      (250 m%)
    dc: VDS = 17.5        (43.8 %), step = 100e-03      (250 m%)
    dc: VDS = 17.6          (44 %), step = 100e-03      (250 m%)
    dc: VDS = 17.7        (44.2 %), step = 100e-03      (250 m%)
    dc: VDS = 17.8        (44.5 %), step = 100e-03      (250 m%)
    dc: VDS = 17.9        (44.8 %), step = 100e-03      (250 m%)
    dc: VDS = 18            (45 %), step = 100e-03      (250 m%)
    dc: VDS = 18.1        (45.2 %), step = 100e-03      (250 m%)
    dc: VDS = 18.2        (45.5 %), step = 100e-03      (250 m%)
    dc: VDS = 18.3        (45.8 %), step = 100e-03      (250 m%)
    dc: VDS = 18.4          (46 %), step = 100e-03      (250 m%)
    dc: VDS = 18.5        (46.2 %), step = 100e-03      (250 m%)
    dc: VDS = 18.6        (46.5 %), step = 100e-03      (250 m%)
    dc: VDS = 18.7        (46.8 %), step = 100e-03      (250 m%)
    dc: VDS = 18.8          (47 %), step = 100e-03      (250 m%)
    dc: VDS = 18.9        (47.2 %), step = 100e-03      (250 m%)
    dc: VDS = 19          (47.5 %), step = 100e-03      (250 m%)
    dc: VDS = 19.1        (47.8 %), step = 100e-03      (250 m%)
    dc: VDS = 19.2          (48 %), step = 100e-03      (250 m%)
    dc: VDS = 19.3        (48.2 %), step = 100e-03      (250 m%)
    dc: VDS = 19.4        (48.5 %), step = 100e-03      (250 m%)
    dc: VDS = 19.5        (48.8 %), step = 100e-03      (250 m%)
    dc: VDS = 19.6          (49 %), step = 100e-03      (250 m%)
    dc: VDS = 19.7        (49.2 %), step = 100e-03      (250 m%)
    dc: VDS = 19.8        (49.5 %), step = 100e-03      (250 m%)
    dc: VDS = 19.9        (49.8 %), step = 100e-03      (250 m%)
    dc: VDS = 20            (50 %), step = 100e-03      (250 m%)
    dc: VDS = 20.1        (50.2 %), step = 100e-03      (250 m%)
    dc: VDS = 20.2        (50.5 %), step = 100e-03      (250 m%)
    dc: VDS = 20.3        (50.7 %), step = 100e-03      (250 m%)
    dc: VDS = 20.4          (51 %), step = 100e-03      (250 m%)
    dc: VDS = 20.5        (51.2 %), step = 100e-03      (250 m%)
    dc: VDS = 20.6        (51.5 %), step = 100e-03      (250 m%)
    dc: VDS = 20.7        (51.7 %), step = 100e-03      (250 m%)
    dc: VDS = 20.8          (52 %), step = 100e-03      (250 m%)
    dc: VDS = 20.9        (52.2 %), step = 100e-03      (250 m%)
    dc: VDS = 21          (52.5 %), step = 100e-03      (250 m%)
    dc: VDS = 21.1        (52.8 %), step = 100e-03      (250 m%)
    dc: VDS = 21.2          (53 %), step = 100e-03      (250 m%)
    dc: VDS = 21.3        (53.2 %), step = 100e-03      (250 m%)
    dc: VDS = 21.4        (53.5 %), step = 100e-03      (250 m%)
    dc: VDS = 21.5        (53.8 %), step = 100e-03      (250 m%)
    dc: VDS = 21.6          (54 %), step = 100e-03      (250 m%)
    dc: VDS = 21.7        (54.2 %), step = 100e-03      (250 m%)
    dc: VDS = 21.8        (54.5 %), step = 100e-03      (250 m%)
    dc: VDS = 21.9        (54.8 %), step = 100e-03      (250 m%)
    dc: VDS = 22            (55 %), step = 100e-03      (250 m%)
    dc: VDS = 22.1        (55.2 %), step = 100e-03      (250 m%)
    dc: VDS = 22.2        (55.5 %), step = 100e-03      (250 m%)
    dc: VDS = 22.3        (55.8 %), step = 100e-03      (250 m%)
    dc: VDS = 22.4          (56 %), step = 100e-03      (250 m%)
    dc: VDS = 22.5        (56.2 %), step = 100e-03      (250 m%)
    dc: VDS = 22.6        (56.5 %), step = 100e-03      (250 m%)
    dc: VDS = 22.7        (56.8 %), step = 100e-03      (250 m%)
    dc: VDS = 22.8          (57 %), step = 100e-03      (250 m%)
    dc: VDS = 22.9        (57.2 %), step = 100e-03      (250 m%)
    dc: VDS = 23          (57.5 %), step = 100e-03      (250 m%)
    dc: VDS = 23.1        (57.8 %), step = 100e-03      (250 m%)
    dc: VDS = 23.2          (58 %), step = 100e-03      (250 m%)
    dc: VDS = 23.3        (58.2 %), step = 100e-03      (250 m%)
    dc: VDS = 23.4        (58.5 %), step = 100e-03      (250 m%)
    dc: VDS = 23.5        (58.8 %), step = 100e-03      (250 m%)
    dc: VDS = 23.6          (59 %), step = 100e-03      (250 m%)
    dc: VDS = 23.7        (59.2 %), step = 100e-03      (250 m%)
    dc: VDS = 23.8        (59.5 %), step = 100e-03      (250 m%)
    dc: VDS = 23.9        (59.8 %), step = 100e-03      (250 m%)
    dc: VDS = 24            (60 %), step = 100e-03      (250 m%)
    dc: VDS = 24.1        (60.2 %), step = 100e-03      (250 m%)
    dc: VDS = 24.2        (60.5 %), step = 100e-03      (250 m%)
    dc: VDS = 24.3        (60.8 %), step = 100e-03      (250 m%)
    dc: VDS = 24.4          (61 %), step = 100e-03      (250 m%)
    dc: VDS = 24.5        (61.3 %), step = 100e-03      (250 m%)
    dc: VDS = 24.6        (61.5 %), step = 100e-03      (250 m%)
    dc: VDS = 24.7        (61.8 %), step = 100e-03      (250 m%)
    dc: VDS = 24.8          (62 %), step = 100e-03      (250 m%)
    dc: VDS = 24.9        (62.3 %), step = 100e-03      (250 m%)
    dc: VDS = 25          (62.5 %), step = 100e-03      (250 m%)
    dc: VDS = 25.1        (62.7 %), step = 100e-03      (250 m%)
    dc: VDS = 25.2          (63 %), step = 100e-03      (250 m%)
    dc: VDS = 25.3        (63.2 %), step = 100e-03      (250 m%)
    dc: VDS = 25.4        (63.5 %), step = 100e-03      (250 m%)
    dc: VDS = 25.5        (63.7 %), step = 100e-03      (250 m%)
    dc: VDS = 25.6          (64 %), step = 100e-03      (250 m%)
    dc: VDS = 25.7        (64.2 %), step = 100e-03      (250 m%)
    dc: VDS = 25.8        (64.5 %), step = 100e-03      (250 m%)
    dc: VDS = 25.9        (64.8 %), step = 100e-03      (250 m%)
    dc: VDS = 26            (65 %), step = 100e-03      (250 m%)
    dc: VDS = 26.1        (65.2 %), step = 100e-03      (250 m%)
    dc: VDS = 26.2        (65.5 %), step = 100e-03      (250 m%)
    dc: VDS = 26.3        (65.8 %), step = 100e-03      (250 m%)
    dc: VDS = 26.4          (66 %), step = 100e-03      (250 m%)
    dc: VDS = 26.5        (66.2 %), step = 100e-03      (250 m%)
    dc: VDS = 26.6        (66.5 %), step = 100e-03      (250 m%)
    dc: VDS = 26.7        (66.8 %), step = 100e-03      (250 m%)
    dc: VDS = 26.8          (67 %), step = 100e-03      (250 m%)
    dc: VDS = 26.9        (67.2 %), step = 100e-03      (250 m%)
    dc: VDS = 27          (67.5 %), step = 100e-03      (250 m%)
    dc: VDS = 27.1        (67.8 %), step = 100e-03      (250 m%)
    dc: VDS = 27.2          (68 %), step = 100e-03      (250 m%)
    dc: VDS = 27.3        (68.2 %), step = 100e-03      (250 m%)
    dc: VDS = 27.4        (68.5 %), step = 100e-03      (250 m%)
    dc: VDS = 27.5        (68.8 %), step = 100e-03      (250 m%)
    dc: VDS = 27.6          (69 %), step = 100e-03      (250 m%)
    dc: VDS = 27.7        (69.2 %), step = 100e-03      (250 m%)
    dc: VDS = 27.8        (69.5 %), step = 100e-03      (250 m%)
    dc: VDS = 27.9        (69.8 %), step = 100e-03      (250 m%)
    dc: VDS = 28            (70 %), step = 100e-03      (250 m%)
    dc: VDS = 28.1        (70.2 %), step = 100e-03      (250 m%)
    dc: VDS = 28.2        (70.5 %), step = 100e-03      (250 m%)
    dc: VDS = 28.3        (70.8 %), step = 100e-03      (250 m%)
    dc: VDS = 28.4          (71 %), step = 100e-03      (250 m%)
    dc: VDS = 28.5        (71.2 %), step = 100e-03      (250 m%)
    dc: VDS = 28.6        (71.5 %), step = 100e-03      (250 m%)
    dc: VDS = 28.7        (71.8 %), step = 100e-03      (250 m%)
    dc: VDS = 28.8          (72 %), step = 100e-03      (250 m%)
    dc: VDS = 28.9        (72.2 %), step = 100e-03      (250 m%)
    dc: VDS = 29          (72.5 %), step = 100e-03      (250 m%)
    dc: VDS = 29.1        (72.8 %), step = 100e-03      (250 m%)
    dc: VDS = 29.2          (73 %), step = 100e-03      (250 m%)
    dc: VDS = 29.3        (73.2 %), step = 100e-03      (250 m%)
    dc: VDS = 29.4        (73.5 %), step = 100e-03      (250 m%)
    dc: VDS = 29.5        (73.8 %), step = 100e-03      (250 m%)
    dc: VDS = 29.6          (74 %), step = 100e-03      (250 m%)
    dc: VDS = 29.7        (74.2 %), step = 100e-03      (250 m%)
    dc: VDS = 29.8        (74.5 %), step = 100e-03      (250 m%)
    dc: VDS = 29.9        (74.8 %), step = 100e-03      (250 m%)
    dc: VDS = 30            (75 %), step = 100e-03      (250 m%)
    dc: VDS = 30.1        (75.2 %), step = 100e-03      (250 m%)
    dc: VDS = 30.2        (75.5 %), step = 100e-03      (250 m%)
    dc: VDS = 30.3        (75.8 %), step = 100e-03      (250 m%)
    dc: VDS = 30.4          (76 %), step = 100e-03      (250 m%)
    dc: VDS = 30.5        (76.2 %), step = 100e-03      (250 m%)
    dc: VDS = 30.6        (76.5 %), step = 100e-03      (250 m%)
    dc: VDS = 30.7        (76.8 %), step = 100e-03      (250 m%)
    dc: VDS = 30.8          (77 %), step = 100e-03      (250 m%)
    dc: VDS = 30.9        (77.2 %), step = 100e-03      (250 m%)
    dc: VDS = 31          (77.5 %), step = 100e-03      (250 m%)
    dc: VDS = 31.1        (77.8 %), step = 100e-03      (250 m%)
    dc: VDS = 31.2          (78 %), step = 100e-03      (250 m%)
    dc: VDS = 31.3        (78.2 %), step = 100e-03      (250 m%)
    dc: VDS = 31.4        (78.5 %), step = 100e-03      (250 m%)
    dc: VDS = 31.5        (78.8 %), step = 100e-03      (250 m%)
    dc: VDS = 31.6          (79 %), step = 100e-03      (250 m%)
    dc: VDS = 31.7        (79.2 %), step = 100e-03      (250 m%)
    dc: VDS = 31.8        (79.5 %), step = 100e-03      (250 m%)
    dc: VDS = 31.9        (79.8 %), step = 100e-03      (250 m%)
    dc: VDS = 32            (80 %), step = 100e-03      (250 m%)
    dc: VDS = 32.1        (80.2 %), step = 100e-03      (250 m%)
    dc: VDS = 32.2        (80.5 %), step = 100e-03      (250 m%)
    dc: VDS = 32.3        (80.8 %), step = 100e-03      (250 m%)
    dc: VDS = 32.4          (81 %), step = 100e-03      (250 m%)
    dc: VDS = 32.5        (81.2 %), step = 100e-03      (250 m%)
    dc: VDS = 32.6        (81.5 %), step = 100e-03      (250 m%)
    dc: VDS = 32.7        (81.8 %), step = 100e-03      (250 m%)
    dc: VDS = 32.8          (82 %), step = 100e-03      (250 m%)
    dc: VDS = 32.9        (82.2 %), step = 100e-03      (250 m%)
    dc: VDS = 33          (82.5 %), step = 100e-03      (250 m%)
    dc: VDS = 33.1        (82.8 %), step = 100e-03      (250 m%)
    dc: VDS = 33.2          (83 %), step = 100e-03      (250 m%)
    dc: VDS = 33.3        (83.2 %), step = 100e-03      (250 m%)
    dc: VDS = 33.4        (83.5 %), step = 100e-03      (250 m%)
    dc: VDS = 33.5        (83.8 %), step = 100e-03      (250 m%)
    dc: VDS = 33.6          (84 %), step = 100e-03      (250 m%)
    dc: VDS = 33.7        (84.2 %), step = 100e-03      (250 m%)
    dc: VDS = 33.8        (84.5 %), step = 100e-03      (250 m%)
    dc: VDS = 33.9        (84.8 %), step = 100e-03      (250 m%)
    dc: VDS = 34            (85 %), step = 100e-03      (250 m%)
    dc: VDS = 34.1        (85.2 %), step = 100e-03      (250 m%)
    dc: VDS = 34.2        (85.5 %), step = 100e-03      (250 m%)
    dc: VDS = 34.3        (85.8 %), step = 100e-03      (250 m%)
    dc: VDS = 34.4          (86 %), step = 100e-03      (250 m%)
    dc: VDS = 34.5        (86.2 %), step = 100e-03      (250 m%)
    dc: VDS = 34.6        (86.5 %), step = 100e-03      (250 m%)
    dc: VDS = 34.7        (86.8 %), step = 100e-03      (250 m%)
    dc: VDS = 34.8          (87 %), step = 100e-03      (250 m%)
    dc: VDS = 34.9        (87.2 %), step = 100e-03      (250 m%)
    dc: VDS = 35          (87.5 %), step = 100e-03      (250 m%)
    dc: VDS = 35.1        (87.8 %), step = 100e-03      (250 m%)
    dc: VDS = 35.2          (88 %), step = 100e-03      (250 m%)
    dc: VDS = 35.3        (88.2 %), step = 100e-03      (250 m%)
    dc: VDS = 35.4        (88.5 %), step = 100e-03      (250 m%)
    dc: VDS = 35.5        (88.8 %), step = 100e-03      (250 m%)
    dc: VDS = 35.6          (89 %), step = 100e-03      (250 m%)
    dc: VDS = 35.7        (89.2 %), step = 100e-03      (250 m%)
    dc: VDS = 35.8        (89.5 %), step = 100e-03      (250 m%)
    dc: VDS = 35.9        (89.8 %), step = 100e-03      (250 m%)
    dc: VDS = 36            (90 %), step = 100e-03      (250 m%)
    dc: VDS = 36.1        (90.2 %), step = 100e-03      (250 m%)
    dc: VDS = 36.2        (90.5 %), step = 100e-03      (250 m%)
    dc: VDS = 36.3        (90.8 %), step = 100e-03      (250 m%)
    dc: VDS = 36.4          (91 %), step = 100e-03      (250 m%)
    dc: VDS = 36.5        (91.2 %), step = 100e-03      (250 m%)
    dc: VDS = 36.6        (91.5 %), step = 100e-03      (250 m%)
    dc: VDS = 36.7        (91.8 %), step = 100e-03      (250 m%)
    dc: VDS = 36.8          (92 %), step = 100e-03      (250 m%)
    dc: VDS = 36.9        (92.2 %), step = 100e-03      (250 m%)
    dc: VDS = 37          (92.5 %), step = 100e-03      (250 m%)
    dc: VDS = 37.1        (92.8 %), step = 100e-03      (250 m%)
    dc: VDS = 37.2          (93 %), step = 100e-03      (250 m%)
    dc: VDS = 37.3        (93.2 %), step = 100e-03      (250 m%)
    dc: VDS = 37.4        (93.5 %), step = 100e-03      (250 m%)
    dc: VDS = 37.5        (93.8 %), step = 100e-03      (250 m%)
    dc: VDS = 37.6          (94 %), step = 100e-03      (250 m%)
    dc: VDS = 37.7        (94.2 %), step = 100e-03      (250 m%)
    dc: VDS = 37.8        (94.5 %), step = 100e-03      (250 m%)
    dc: VDS = 37.9        (94.8 %), step = 100e-03      (250 m%)
    dc: VDS = 38            (95 %), step = 100e-03      (250 m%)
    dc: VDS = 38.1        (95.2 %), step = 100e-03      (250 m%)
    dc: VDS = 38.2        (95.5 %), step = 100e-03      (250 m%)
    dc: VDS = 38.3        (95.8 %), step = 100e-03      (250 m%)
    dc: VDS = 38.4          (96 %), step = 100e-03      (250 m%)
    dc: VDS = 38.5        (96.2 %), step = 100e-03      (250 m%)
    dc: VDS = 38.6        (96.5 %), step = 100e-03      (250 m%)
    dc: VDS = 38.7        (96.8 %), step = 100e-03      (250 m%)
    dc: VDS = 38.8          (97 %), step = 100e-03      (250 m%)
    dc: VDS = 38.9        (97.2 %), step = 100e-03      (250 m%)
    dc: VDS = 39          (97.5 %), step = 100e-03      (250 m%)
    dc: VDS = 39.1        (97.8 %), step = 100e-03      (250 m%)
    dc: VDS = 39.2          (98 %), step = 100e-03      (250 m%)
    dc: VDS = 39.3        (98.2 %), step = 100e-03      (250 m%)
    dc: VDS = 39.4        (98.5 %), step = 100e-03      (250 m%)
    dc: VDS = 39.5        (98.8 %), step = 100e-03      (250 m%)
    dc: VDS = 39.6          (99 %), step = 100e-03      (250 m%)
    dc: VDS = 39.7        (99.2 %), step = 100e-03      (250 m%)
    dc: VDS = 39.8        (99.5 %), step = 100e-03      (250 m%)
    dc: VDS = 39.9        (99.8 %), step = 100e-03      (250 m%)
    dc: VDS = 40           (100 %), step = 100e-03      (250 m%)

Maximum value achieved for any signal of each quantity: 
V: V(net2) = 40 V
I: I(M0:1) = 41.06 mA
DC simulation time: CPU = 33.856 ms, elapsed = 36.536 ms.

Notice from spectre at VDS = 40 during DC analysis `dc'.
    The value of parameter 'VDS' has been reset to the original value 1.

Total time required for dc analysis `dc': CPU = 33.877 ms, elapsed = 36.556 ms, util. = 92.7%.
Time accumulated: CPU = 284.441 ms, elapsed = 584.615 ms.
Peak resident memory used = 114 Mbytes.

modelParameter: writing model parameter values to rawfile.

Opening the PSF file ../psf/modelParameter.info ...
element: writing instance parameter values to rawfile.

Opening the PSF file ../psf/element.info ...
outputParameter: writing output parameter values to rawfile.

Opening the PSF file ../psf/outputParameter.info ...
designParamVals: writing netlist parameters to rawfile.

Opening the PSFASCII file ../psf/designParamVals.info ...
primitives: writing primitives to rawfile.

Opening the PSFASCII file ../psf/primitives.info.primitives ...
subckts: writing subcircuits to rawfile.

Opening the PSFASCII file ../psf/subckts.info.subckts ...
Licensing Information:
Lic Summary:
[02:02:08.451273] Cdslmd servers:3000@lic08.ug.kth.se
[02:02:08.451281] Feature usage summary:
[02:02:08.451282] Virtuoso_Multi_mode_Simulation


Aggregate audit (2:02:08 AM, Mon Feb 5, 2024):
Time used: CPU = 298 ms, elapsed = 667 ms, util. = 44.7%.
Time spent in licensing: elapsed = 530 ms, percentage of total = 79.4%.
Peak memory used = 116 Mbytes.
Simulation started at: 2:02:08 AM, Mon Feb 5, 2024, ended at: 2:02:08 AM, Mon Feb 5, 2024, with elapsed time (wall clock): 667 ms.
spectre completes with 0 errors, 0 warnings, and 6 notices.


********* LOG ENDS **************
**                             **
