
Spectre (R) Circuit Simulator
Version 23.1.0.305.isr3 64bit -- 13 Nov 2023
Copyright (C) 1989-2023 Cadence Design Systems, Inc. All rights reserved worldwide. Cadence and Spectre are registered trademarks of Cadence Design Systems, Inc. All others are the property of their respective holders.

Includes RSA BSAFE(R) Cryptographic or Security Protocol Software from RSA Security, Inc.

User: saul   Host: phoenix   HostID: A0F02   PID: 29894
Memory  available: 12.0475 GB  physical: 16.6560 GB
Linux   : CentOS Linux release 7 (Core)
CPU Type: 11th Gen Intel(R) Core(TM) i7-11700K @ 3.60GHz
All processors running at 3600.0 MHz
        Socket: Processors
        0:       0,  1,  2,  3,  4,  5
        
System load averages (1min, 5min, 15min) : 4.0 %, 2.3 %, 4.3 %
HPC is enabled


Simulating `input.scs' on phoenix at 12:23:02 PM, Sun Feb 18, 2024 (process id: 29894).
Current working directory: /home/saul/projects/XH018_mixed_ji3/test_mix/virtuoso/Sim/CHARACTERIZATION/DC_BIAS_NMOS_3/adexl/results/data/Ocean.2/1/CHARACTERIZATION:DC_BIAS_NMOS_L:1/netlist
Command line:
    /pkg/cadence/installs/SPECTRE231/tools/bin/spectre -64 input.scs  \
        +escchars +log ../psf/spectre.out -format psfxl -raw ../psf  \
        ++aps +mt +lqtimeout 900 -maxw 5 -maxn 5 -env ade -ahdllibdir  \
        /home/saul/projects/XH018_mixed_ji3/test_mix/virtuoso/Sim/CHARACTERIZATION/DC_BIAS_NMOS_3/adexl/results/data/Ocean.2/sharedData/Job241/ahdl/input.ahdlSimDB  \
        +logstatus

Licensing Information:
[12:23:02.512337] Configured Lic search path (22.01-s002): 3000@lic08.ug.kth.se

Licensing Information:
[12:23:02.111632] Periodic Lic check successful

Loading /pkg/cadence/installs/SPECTRE231/tools.lnx86/cmi/lib/64bit/5.0/libinfineon_sh.so ...
Loading /pkg/cadence/installs/SPECTRE231/tools.lnx86/cmi/lib/64bit/5.0/libphilips_I_sh.so ...
Loading /pkg/cadence/installs/SPECTRE231/tools.lnx86/cmi/lib/64bit/5.0/libphilips_sh.so ...
Loading /pkg/cadence/installs/SPECTRE231/tools.lnx86/cmi/lib/64bit/5.0/libsparam_sh.so ...
Loading /pkg/cadence/installs/SPECTRE231/tools.lnx86/cmi/lib/64bit/5.0/libstmodels_sh.so ...
Reading file:  /home/saul/projects/XH018_mixed_ji3/test_mix/virtuoso/Sim/CHARACTERIZATION/DC_BIAS_NMOS_3/adexl/results/data/Ocean.2/1/CHARACTERIZATION:DC_BIAS_NMOS_L:1/netlist/input.scs
Reading link:  /pkg/cadence
Reading file:  /home/saul/cadence/installs/SPECTRE231/tools.lnx86/spectre/etc/configs/spectre.cfg
Reading file:  /home/saul/pkg/xfab/XKIT/xh018/cadence/v9_0/spectre/v9_0_2/lpmos/config.scs
Reading file:  /home/saul/pkg/xfab/XKIT/xh018/cadence/v9_0/spectre/v9_0_2/lpmos/param.scs
Reading file:  /home/saul/pkg/xfab/XKIT/xh018/cadence/v9_0/spectre/v9_0_2/lpmos/bip.scs
Reading file:  /home/saul/pkg/xfab/XKIT/xh018/cadence/v9_0/spectre/v9_0_2/lpmos/models/bip/tm_bip.scs
Reading file:  /home/saul/pkg/xfab/XKIT/xh018/cadence/v9_0/spectre/v9_0_2/lpmos/models/bip/qpva.scs
Reading file:  /home/saul/pkg/xfab/XKIT/xh018/cadence/v9_0/spectre/v9_0_2/lpmos/models/bip/qpvb.scs
Reading file:  /home/saul/pkg/xfab/XKIT/xh018/cadence/v9_0/spectre/v9_0_2/lpmos/models/bip/qpvc.scs
Reading file:  /home/saul/pkg/xfab/XKIT/xh018/cadence/v9_0/spectre/v9_0_2/lpmos/models/bip/qpva3.scs
Reading file:  /home/saul/pkg/xfab/XKIT/xh018/cadence/v9_0/spectre/v9_0_2/lpmos/models/bip/qpvb3.scs
Reading file:  /home/saul/pkg/xfab/XKIT/xh018/cadence/v9_0/spectre/v9_0_2/lpmos/models/bip/qpvc3.scs
Reading file:  /home/saul/pkg/xfab/XKIT/xh018/cadence/v9_0/spectre/v9_0_2/lpmos/models/bip/qnva.scs
Reading file:  /home/saul/pkg/xfab/XKIT/xh018/cadence/v9_0/spectre/v9_0_2/lpmos/models/bip/qnvb.scs
Reading file:  /home/saul/pkg/xfab/XKIT/xh018/cadence/v9_0/spectre/v9_0_2/lpmos/models/bip/qnvb_npn.scs
Reading file:  /home/saul/pkg/xfab/XKIT/xh018/cadence/v9_0/spectre/v9_0_2/lpmos/models/bip/qnvb_pnp.scs
Reading file:  /home/saul/pkg/xfab/XKIT/xh018/cadence/v9_0/spectre/v9_0_2/lpmos/models/bip/qnvc.scs
Reading file:  /home/saul/pkg/xfab/XKIT/xh018/cadence/v9_0/spectre/v9_0_2/lpmos/models/bip/qnvc_npn.scs
Reading file:  /home/saul/pkg/xfab/XKIT/xh018/cadence/v9_0/spectre/v9_0_2/lpmos/models/bip/qnvc_pnp.scs
Reading file:  /home/saul/pkg/xfab/XKIT/xh018/cadence/v9_0/spectre/v9_0_2/lpmos/models/bip/qpvhscr.scs
Reading file:  /home/saul/pkg/xfab/XKIT/xh018/cadence/v9_0/spectre/v9_0_2/lpmos/models/bip/qpvascr.scs
Reading file:  /home/saul/pkg/xfab/XKIT/xh018/cadence/v9_0/spectre/v9_0_2/lpmos/models/bip/qpvhbscr.scs
Reading file:  /home/saul/pkg/xfab/XKIT/xh018/cadence/v9_0/spectre/v9_0_2/lpmos/models/bip/qnvba.scs
Reading file:  /home/saul/pkg/xfab/XKIT/xh018/cadence/v9_0/spectre/v9_0_2/lpmos/models/bip/qnvba_npn.scs
Reading file:  /home/saul/pkg/xfab/XKIT/xh018/cadence/v9_0/spectre/v9_0_2/lpmos/models/bip/qnvba_pnp.scs
Reading file:  /home/saul/pkg/xfab/XKIT/xh018/cadence/v9_0/spectre/v9_0_2/lpmos/models/bip/qnvca.scs
Reading file:  /home/saul/pkg/xfab/XKIT/xh018/cadence/v9_0/spectre/v9_0_2/lpmos/models/bip/qnvca_npn.scs
Reading file:  /home/saul/pkg/xfab/XKIT/xh018/cadence/v9_0/spectre/v9_0_2/lpmos/models/bip/qnvca_pnp.scs
Reading file:  /home/saul/pkg/xfab/XKIT/xh018/cadence/v9_0/spectre/v9_0_2/lpmos/models/bip/qpv_pa.scs
Reading file:  /home/saul/pkg/xfab/XKIT/xh018/cadence/v9_0/spectre/v9_0_2/lpmos/models/bip/qpv_pb.scs
Reading file:  /home/saul/pkg/xfab/XKIT/xh018/cadence/v9_0/spectre/v9_0_2/lpmos/models/bip/qpv_pc.scs
Reading file:  /home/saul/pkg/xfab/XKIT/xh018/cadence/v9_0/spectre/v9_0_2/lpmos/models/bip/qpv_pd.scs
Reading file:  /home/saul/pkg/xfab/XKIT/xh018/cadence/v9_0/spectre/v9_0_2/lpmos/models/bip/qpv_pe.scs
Reading file:  /home/saul/pkg/xfab/XKIT/xh018/cadence/v9_0/spectre/v9_0_2/lpmos/models/bip/qpv_pf.scs
Reading file:  /home/saul/pkg/xfab/XKIT/xh018/cadence/v9_0/spectre/v9_0_2/lpmos/models/bip/qpl_pa.scs
Reading file:  /home/saul/pkg/xfab/XKIT/xh018/cadence/v9_0/spectre/v9_0_2/lpmos/models/bip/qpl_pb.scs
Reading file:  /home/saul/pkg/xfab/XKIT/xh018/cadence/v9_0/spectre/v9_0_2/lpmos/models/bip/qpl_pc.scs
Reading file:  /home/saul/pkg/xfab/XKIT/xh018/cadence/v9_0/spectre/v9_0_2/lpmos/models/bip/qpl_pd.scs
Reading file:  /home/saul/pkg/xfab/XKIT/xh018/cadence/v9_0/spectre/v9_0_2/lpmos/models/bip/qpl_pe.scs
Reading file:  /home/saul/pkg/xfab/XKIT/xh018/cadence/v9_0/spectre/v9_0_2/lpmos/models/bip/qpl_pf.scs
Reading file:  /home/saul/pkg/xfab/XKIT/xh018/cadence/v9_0/spectre/v9_0_2/lpmos/models/bip/qnl_pa.scs
Reading file:  /home/saul/pkg/xfab/XKIT/xh018/cadence/v9_0/spectre/v9_0_2/lpmos/models/bip/qnl_pb.scs
Reading file:  /home/saul/pkg/xfab/XKIT/xh018/cadence/v9_0/spectre/v9_0_2/lpmos/models/bip/qnl_pc.scs
Reading file:  /home/saul/pkg/xfab/XKIT/xh018/cadence/v9_0/spectre/v9_0_2/lpmos/models/bip/qnl_pd.scs
Reading file:  /home/saul/pkg/xfab/XKIT/xh018/cadence/v9_0/spectre/v9_0_2/lpmos/models/bip/qnl_pe.scs
Reading file:  /home/saul/pkg/xfab/XKIT/xh018/cadence/v9_0/spectre/v9_0_2/lpmos/models/bip/qnl_pf.scs
Reading file:  /home/saul/pkg/xfab/XKIT/xh018/cadence/v9_0/spectre/v9_0_2/lpmos/cap.scs
Reading file:  /home/saul/pkg/xfab/XKIT/xh018/cadence/v9_0/spectre/v9_0_2/lpmos/models/cap/tm_cap.scs
Reading file:  /home/saul/pkg/xfab/XKIT/xh018/cadence/v9_0/spectre/v9_0_2/lpmos/models/cap/csandwt3.scs
Reading file:  /home/saul/pkg/xfab/XKIT/xh018/cadence/v9_0/spectre/v9_0_2/lpmos/models/cap/csandwt4.scs
Reading file:  /home/saul/pkg/xfab/XKIT/xh018/cadence/v9_0/spectre/v9_0_2/lpmos/models/cap/csandwt5.scs
Reading file:  /home/saul/pkg/xfab/XKIT/xh018/cadence/v9_0/spectre/v9_0_2/lpmos/models/cap/csf2p.scs
Reading file:  /home/saul/pkg/xfab/XKIT/xh018/cadence/v9_0/spectre/v9_0_2/lpmos/models/cap/csf3p.scs
Reading file:  /home/saul/pkg/xfab/XKIT/xh018/cadence/v9_0/spectre/v9_0_2/lpmos/models/cap/csf3.scs
Reading file:  /home/saul/pkg/xfab/XKIT/xh018/cadence/v9_0/spectre/v9_0_2/lpmos/models/cap/csf4.scs
Reading file:  /home/saul/pkg/xfab/XKIT/xh018/cadence/v9_0/spectre/v9_0_2/lpmos/models/cap/csf5.scs
Reading file:  /home/saul/pkg/xfab/XKIT/xh018/cadence/v9_0/spectre/v9_0_2/lpmos/models/cap/csft4.scs
Reading file:  /home/saul/pkg/xfab/XKIT/xh018/cadence/v9_0/spectre/v9_0_2/lpmos/models/cap/csft5.scs
Reading file:  /home/saul/pkg/xfab/XKIT/xh018/cadence/v9_0/spectre/v9_0_2/lpmos/models/cap/csft6.scs
Reading file:  /home/saul/pkg/xfab/XKIT/xh018/cadence/v9_0/spectre/v9_0_2/lpmos/models/cap/csf3a.scs
Reading file:  /home/saul/pkg/xfab/XKIT/xh018/cadence/v9_0/spectre/v9_0_2/lpmos/models/cap/csf4a.scs
Reading file:  /home/saul/pkg/xfab/XKIT/xh018/cadence/v9_0/spectre/v9_0_2/lpmos/models/cap/csf5a.scs
Reading file:  /home/saul/pkg/xfab/XKIT/xh018/cadence/v9_0/spectre/v9_0_2/lpmos/models/cap/csft4a.scs
Reading file:  /home/saul/pkg/xfab/XKIT/xh018/cadence/v9_0/spectre/v9_0_2/lpmos/models/cap/csft5a.scs
Reading file:  /home/saul/pkg/xfab/XKIT/xh018/cadence/v9_0/spectre/v9_0_2/lpmos/models/cap/csft6a.scs
Reading file:  /home/saul/pkg/xfab/XKIT/xh018/cadence/v9_0/spectre/v9_0_2/lpmos/models/cap/cif3a.scs
Reading file:  /home/saul/pkg/xfab/XKIT/xh018/cadence/v9_0/spectre/v9_0_2/lpmos/models/cap/cif4a.scs
Reading file:  /home/saul/pkg/xfab/XKIT/xh018/cadence/v9_0/spectre/v9_0_2/lpmos/models/cap/cif5a.scs
Reading file:  /home/saul/pkg/xfab/XKIT/xh018/cadence/v9_0/spectre/v9_0_2/lpmos/models/cap/cift4a.scs
Reading file:  /home/saul/pkg/xfab/XKIT/xh018/cadence/v9_0/spectre/v9_0_2/lpmos/models/cap/cift5a.scs
Reading file:  /home/saul/pkg/xfab/XKIT/xh018/cadence/v9_0/spectre/v9_0_2/lpmos/models/cap/cift6a.scs
Reading file:  /home/saul/pkg/xfab/XKIT/xh018/cadence/v9_0/spectre/v9_0_2/lpmos/models/cap/cmm3.scs
Reading file:  /home/saul/pkg/xfab/XKIT/xh018/cadence/v9_0/spectre/v9_0_2/lpmos/models/cap/cmm4t.scs
Reading file:  /home/saul/pkg/xfab/XKIT/xh018/cadence/v9_0/spectre/v9_0_2/lpmos/models/cap/cmm4.scs
Reading file:  /home/saul/pkg/xfab/XKIT/xh018/cadence/v9_0/spectre/v9_0_2/lpmos/models/cap/cmm5t.scs
Reading file:  /home/saul/pkg/xfab/XKIT/xh018/cadence/v9_0/spectre/v9_0_2/lpmos/models/cap/cmm6t.scs
Reading file:  /home/saul/pkg/xfab/XKIT/xh018/cadence/v9_0/spectre/v9_0_2/lpmos/models/cap/cdmm4.scs
Reading file:  /home/saul/pkg/xfab/XKIT/xh018/cadence/v9_0/spectre/v9_0_2/lpmos/models/cap/cdmm4t.scs
Reading file:  /home/saul/pkg/xfab/XKIT/xh018/cadence/v9_0/spectre/v9_0_2/lpmos/models/cap/ctmm5.scs
Reading file:  /home/saul/pkg/xfab/XKIT/xh018/cadence/v9_0/spectre/v9_0_2/lpmos/models/cap/ctmm5t.scs
Reading file:  /home/saul/pkg/xfab/XKIT/xh018/cadence/v9_0/spectre/v9_0_2/lpmos/models/cap/cmmh3.scs
Reading file:  /home/saul/pkg/xfab/XKIT/xh018/cadence/v9_0/spectre/v9_0_2/lpmos/models/cap/cmmh4t.scs
Reading file:  /home/saul/pkg/xfab/XKIT/xh018/cadence/v9_0/spectre/v9_0_2/lpmos/models/cap/cmmh4.scs
Reading file:  /home/saul/pkg/xfab/XKIT/xh018/cadence/v9_0/spectre/v9_0_2/lpmos/models/cap/cmmh5t.scs
Reading file:  /home/saul/pkg/xfab/XKIT/xh018/cadence/v9_0/spectre/v9_0_2/lpmos/models/cap/cmmh6t.scs
Reading file:  /home/saul/pkg/xfab/XKIT/xh018/cadence/v9_0/spectre/v9_0_2/lpmos/models/cap/cdmmh4.scs
Reading file:  /home/saul/pkg/xfab/XKIT/xh018/cadence/v9_0/spectre/v9_0_2/lpmos/models/cap/cdmmh4t.scs
Reading file:  /home/saul/pkg/xfab/XKIT/xh018/cadence/v9_0/spectre/v9_0_2/lpmos/models/cap/ctmmh5.scs
Reading file:  /home/saul/pkg/xfab/XKIT/xh018/cadence/v9_0/spectre/v9_0_2/lpmos/models/cap/ctmmh5t.scs
Reading file:  /home/saul/pkg/xfab/XKIT/xh018/cadence/v9_0/spectre/v9_0_2/lpmos/models/cap/mosvc.scs
Reading file:  /home/saul/pkg/xfab/XKIT/xh018/cadence/v9_0/spectre/v9_0_2/lpmos/models/cap/mosvc_pmos.scs
Reading file:  /home/saul/pkg/xfab/XKIT/xh018/cadence/v9_0/spectre/v9_0_2/lpmos/models/cap/mosvci.scs
Reading file:  /home/saul/pkg/xfab/XKIT/xh018/cadence/v9_0/spectre/v9_0_2/lpmos/models/cap/mosvci_nmos.scs
Reading file:  /home/saul/pkg/xfab/XKIT/xh018/cadence/v9_0/spectre/v9_0_2/lpmos/models/cap/mosvci_m.scs
Reading file:  /home/saul/pkg/xfab/XKIT/xh018/cadence/v9_0/spectre/v9_0_2/lpmos/models/cap/mosvc3.scs
Reading file:  /home/saul/pkg/xfab/XKIT/xh018/cadence/v9_0/spectre/v9_0_2/lpmos/models/cap/mosvc3_pmos.scs
Reading file:  /home/saul/pkg/xfab/XKIT/xh018/cadence/v9_0/spectre/v9_0_2/lpmos/models/cap/mosvc3i.scs
Reading file:  /home/saul/pkg/xfab/XKIT/xh018/cadence/v9_0/spectre/v9_0_2/lpmos/models/cap/mosvc3i_nmos.scs
Reading file:  /home/saul/pkg/xfab/XKIT/xh018/cadence/v9_0/spectre/v9_0_2/lpmos/models/cap/mosvc3i_m.scs
Reading file:  /home/saul/pkg/xfab/XKIT/xh018/cadence/v9_0/spectre/v9_0_2/lpmos/models/cap/cpod.scs
Reading file:  /home/saul/pkg/xfab/XKIT/xh018/cadence/v9_0/spectre/v9_0_2/lpmos/models/cap/cpod_i.scs
Reading file:  /home/saul/pkg/xfab/XKIT/xh018/cadence/v9_0/spectre/v9_0_2/lpmos/models/cap/cpodhv.scs
Reading file:  /home/saul/pkg/xfab/XKIT/xh018/cadence/v9_0/spectre/v9_0_2/lpmos/models/cap/cpodhv_i.scs
Reading file:  /home/saul/pkg/xfab/XKIT/xh018/cadence/v9_0/spectre/v9_0_2/lpmos/models/cap/cp1sub.scs
Reading file:  /home/saul/pkg/xfab/XKIT/xh018/cadence/v9_0/spectre/v9_0_2/lpmos/models/cap/cp1suba.scs
Reading file:  /home/saul/pkg/xfab/XKIT/xh018/cadence/v9_0/spectre/v9_0_2/lpmos/models/cap/cp1subp.scs
Reading file:  /home/saul/pkg/xfab/XKIT/xh018/cadence/v9_0/spectre/v9_0_2/lpmos/models/cap/tag_25v.scs
Reading file:  /home/saul/pkg/xfab/XKIT/xh018/cadence/v9_0/spectre/v9_0_2/lpmos/models/cap/tag_60v.scs
Reading file:  /home/saul/pkg/xfab/XKIT/xh018/cadence/v9_0/spectre/v9_0_2/lpmos/dio.scs
Reading file:  /home/saul/pkg/xfab/XKIT/xh018/cadence/v9_0/spectre/v9_0_2/lpmos/models/dio/tm_dio.scs
Reading file:  /home/saul/pkg/xfab/XKIT/xh018/cadence/v9_0/spectre/v9_0_2/lpmos/models/dio/dn.scs
Reading file:  /home/saul/pkg/xfab/XKIT/xh018/cadence/v9_0/spectre/v9_0_2/lpmos/models/dio/dp.scs
Reading file:  /home/saul/pkg/xfab/XKIT/xh018/cadence/v9_0/spectre/v9_0_2/lpmos/models/dio/dnw.scs
Reading file:  /home/saul/pkg/xfab/XKIT/xh018/cadence/v9_0/spectre/v9_0_2/lpmos/models/dio/dn3.scs
Reading file:  /home/saul/pkg/xfab/XKIT/xh018/cadence/v9_0/spectre/v9_0_2/lpmos/models/dio/dnn3.scs
Reading file:  /home/saul/pkg/xfab/XKIT/xh018/cadence/v9_0/spectre/v9_0_2/lpmos/models/dio/dp3.scs
Reading file:  /home/saul/pkg/xfab/XKIT/xh018/cadence/v9_0/spectre/v9_0_2/lpmos/models/dio/dnw3.scs
Reading file:  /home/saul/pkg/xfab/XKIT/xh018/cadence/v9_0/spectre/v9_0_2/lpmos/models/dio/ddnwmv.scs
Reading file:  /home/saul/pkg/xfab/XKIT/xh018/cadence/v9_0/spectre/v9_0_2/lpmos/models/dio/dpdnwmv.scs
Reading file:  /home/saul/pkg/xfab/XKIT/xh018/cadence/v9_0/spectre/v9_0_2/lpmos/models/dio/dipdnwmv.scs
Reading file:  /home/saul/pkg/xfab/XKIT/xh018/cadence/v9_0/spectre/v9_0_2/lpmos/models/dio/ddnw.scs
Reading file:  /home/saul/pkg/xfab/XKIT/xh018/cadence/v9_0/spectre/v9_0_2/lpmos/models/dio/dpdnw.scs
Reading file:  /home/saul/pkg/xfab/XKIT/xh018/cadence/v9_0/spectre/v9_0_2/lpmos/models/dio/dipdnw.scs
Reading file:  /home/saul/pkg/xfab/XKIT/xh018/cadence/v9_0/spectre/v9_0_2/lpmos/models/dio/dnhpw.scs
Reading file:  /home/saul/pkg/xfab/XKIT/xh018/cadence/v9_0/spectre/v9_0_2/lpmos/models/dio/dnhpwa.scs
Reading file:  /home/saul/pkg/xfab/XKIT/xh018/cadence/v9_0/spectre/v9_0_2/lpmos/models/dio/dphnw.scs
Reading file:  /home/saul/pkg/xfab/XKIT/xh018/cadence/v9_0/spectre/v9_0_2/lpmos/models/dio/dphnwa.scs
Reading file:  /home/saul/pkg/xfab/XKIT/xh018/cadence/v9_0/spectre/v9_0_2/lpmos/models/dio/dhpw.scs
Reading file:  /home/saul/pkg/xfab/XKIT/xh018/cadence/v9_0/spectre/v9_0_2/lpmos/models/dio/dhnw.scs
Reading file:  /home/saul/pkg/xfab/XKIT/xh018/cadence/v9_0/spectre/v9_0_2/lpmos/models/dio/dndf.scs
Reading file:  /home/saul/pkg/xfab/XKIT/xh018/cadence/v9_0/spectre/v9_0_2/lpmos/models/dio/dpdwhn.scs
Reading file:  /home/saul/pkg/xfab/XKIT/xh018/cadence/v9_0/spectre/v9_0_2/lpmos/models/dio/dwhn.scs
Reading file:  /home/saul/pkg/xfab/XKIT/xh018/cadence/v9_0/spectre/v9_0_2/lpmos/models/dio/dpwhn.scs
Reading file:  /home/saul/pkg/xfab/XKIT/xh018/cadence/v9_0/spectre/v9_0_2/lpmos/models/dio/dpndf.scs
Reading file:  /home/saul/pkg/xfab/XKIT/xh018/cadence/v9_0/spectre/v9_0_2/lpmos/models/dio/dpdddnw.scs
Reading file:  /home/saul/pkg/xfab/XKIT/xh018/cadence/v9_0/spectre/v9_0_2/lpmos/models/dio/ddpldnw.scs
Reading file:  /home/saul/pkg/xfab/XKIT/xh018/cadence/v9_0/spectre/v9_0_2/lpmos/models/dio/dn3dpl.scs
Reading file:  /home/saul/pkg/xfab/XKIT/xh018/cadence/v9_0/spectre/v9_0_2/lpmos/models/dio/dbn.scs
Reading file:  /home/saul/pkg/xfab/XKIT/xh018/cadence/v9_0/spectre/v9_0_2/lpmos/models/dio/dpol.scs
Reading file:  /home/saul/pkg/xfab/XKIT/xh018/cadence/v9_0/spectre/v9_0_2/lpmos/models/dio/dnpdd_scr.scs
Reading file:  /home/saul/pkg/xfab/XKIT/xh018/cadence/v9_0/spectre/v9_0_2/lpmos/models/dio/dpdd_scr.scs
Reading file:  /home/saul/pkg/xfab/XKIT/xh018/cadence/v9_0/spectre/v9_0_2/lpmos/models/dio/dsb.scs
Reading file:  /home/saul/pkg/xfab/XKIT/xh018/cadence/v9_0/spectre/v9_0_2/lpmos/models/dio/dsba.scs
Reading file:  /home/saul/pkg/xfab/XKIT/xh018/cadence/v9_0/spectre/v9_0_2/lpmos/models/dio/dsba_qp1.scs
Reading file:  /home/saul/pkg/xfab/XKIT/xh018/cadence/v9_0/spectre/v9_0_2/lpmos/models/dio/dnp20.scs
Reading file:  /home/saul/pkg/xfab/XKIT/xh018/cadence/v9_0/spectre/v9_0_2/lpmos/models/dio/dpp20.scs
Reading file:  /home/saul/pkg/xfab/XKIT/xh018/cadence/v9_0/spectre/v9_0_2/lpmos/models/dio/dn3sci.scs
Reading file:  /home/saul/pkg/xfab/XKIT/xh018/cadence/v9_0/spectre/v9_0_2/lpmos/models/dio/dscidnwmv.scs
Reading file:  /home/saul/pkg/xfab/XKIT/xh018/cadence/v9_0/spectre/v9_0_2/lpmos/mos.scs
Reading file:  /home/saul/pkg/xfab/XKIT/xh018/cadence/v9_0/spectre/v9_0_2/lpmos/models/mos/tm_mos.scs
Reading file:  /home/saul/pkg/xfab/XKIT/xh018/cadence/v9_0/spectre/v9_0_2/lpmos/models/mos/ne.scs
Reading file:  /home/saul/pkg/xfab/XKIT/xh018/cadence/v9_0/spectre/v9_0_2/lpmos/models/mos/nei.scs
Reading file:  /home/saul/pkg/xfab/XKIT/xh018/cadence/v9_0/spectre/v9_0_2/lpmos/models/mos/nei_6.scs
Reading file:  /home/saul/pkg/xfab/XKIT/xh018/cadence/v9_0/spectre/v9_0_2/lpmos/models/mos/nei_m_6.scs
Reading file:  /home/saul/pkg/xfab/XKIT/xh018/cadence/v9_0/spectre/v9_0_2/lpmos/models/mos/pe.scs
Reading file:  /home/saul/pkg/xfab/XKIT/xh018/cadence/v9_0/spectre/v9_0_2/lpmos/models/mos/pe_5.scs
Reading file:  /home/saul/pkg/xfab/XKIT/xh018/cadence/v9_0/spectre/v9_0_2/lpmos/models/mos/pei.scs
Reading file:  /home/saul/pkg/xfab/XKIT/xh018/cadence/v9_0/spectre/v9_0_2/lpmos/models/mos/pei_5.scs
Reading file:  /home/saul/pkg/xfab/XKIT/xh018/cadence/v9_0/spectre/v9_0_2/lpmos/models/mos/pei_m_5.scs
Reading file:  /home/saul/pkg/xfab/XKIT/xh018/cadence/v9_0/spectre/v9_0_2/lpmos/models/mos/nel.scs
Reading file:  /home/saul/pkg/xfab/XKIT/xh018/cadence/v9_0/spectre/v9_0_2/lpmos/models/mos/neli.scs
Reading file:  /home/saul/pkg/xfab/XKIT/xh018/cadence/v9_0/spectre/v9_0_2/lpmos/models/mos/neli_6.scs
Reading file:  /home/saul/pkg/xfab/XKIT/xh018/cadence/v9_0/spectre/v9_0_2/lpmos/models/mos/neli_m_6.scs
Reading file:  /home/saul/pkg/xfab/XKIT/xh018/cadence/v9_0/spectre/v9_0_2/lpmos/models/mos/pel.scs
Reading file:  /home/saul/pkg/xfab/XKIT/xh018/cadence/v9_0/spectre/v9_0_2/lpmos/models/mos/pel_5.scs
Reading file:  /home/saul/pkg/xfab/XKIT/xh018/cadence/v9_0/spectre/v9_0_2/lpmos/models/mos/peli.scs
Reading file:  /home/saul/pkg/xfab/XKIT/xh018/cadence/v9_0/spectre/v9_0_2/lpmos/models/mos/peli_5.scs
Reading file:  /home/saul/pkg/xfab/XKIT/xh018/cadence/v9_0/spectre/v9_0_2/lpmos/models/mos/peli_m_5.scs
Reading file:  /home/saul/pkg/xfab/XKIT/xh018/cadence/v9_0/spectre/v9_0_2/lpmos/models/mos/nn3.scs
Reading file:  /home/saul/pkg/xfab/XKIT/xh018/cadence/v9_0/spectre/v9_0_2/lpmos/models/mos/ne3.scs
Reading file:  /home/saul/pkg/xfab/XKIT/xh018/cadence/v9_0/spectre/v9_0_2/lpmos/models/mos/ne3i.scs
Reading file:  /home/saul/pkg/xfab/XKIT/xh018/cadence/v9_0/spectre/v9_0_2/lpmos/models/mos/ne3i_6.scs
Reading file:  /home/saul/pkg/xfab/XKIT/xh018/cadence/v9_0/spectre/v9_0_2/lpmos/models/mos/ne3i_m_6.scs
Reading file:  /home/saul/pkg/xfab/XKIT/xh018/cadence/v9_0/spectre/v9_0_2/lpmos/models/mos/pe3.scs
Reading file:  /home/saul/pkg/xfab/XKIT/xh018/cadence/v9_0/spectre/v9_0_2/lpmos/models/mos/pe3_5.scs
Reading file:  /home/saul/pkg/xfab/XKIT/xh018/cadence/v9_0/spectre/v9_0_2/lpmos/models/mos/pe3i.scs
Reading file:  /home/saul/pkg/xfab/XKIT/xh018/cadence/v9_0/spectre/v9_0_2/lpmos/models/mos/pe3i_5.scs
Reading file:  /home/saul/pkg/xfab/XKIT/xh018/cadence/v9_0/spectre/v9_0_2/lpmos/models/mos/pe3i_m_5.scs
Reading file:  /home/saul/pkg/xfab/XKIT/xh018/cadence/v9_0/spectre/v9_0_2/lpmos/models/mos/pe3ln.scs
Reading file:  /home/saul/pkg/xfab/XKIT/xh018/cadence/v9_0/spectre/v9_0_2/lpmos/models/mos/pe3ln_5.scs
Reading file:  /home/saul/pkg/xfab/XKIT/xh018/cadence/v9_0/spectre/v9_0_2/lpmos/models/mos/pe3lni.scs
Reading file:  /home/saul/pkg/xfab/XKIT/xh018/cadence/v9_0/spectre/v9_0_2/lpmos/models/mos/pe3lni_5.scs
Reading file:  /home/saul/pkg/xfab/XKIT/xh018/cadence/v9_0/spectre/v9_0_2/lpmos/models/mos/pe3lni_m_5.scs
Reading file:  /home/saul/pkg/xfab/XKIT/xh018/cadence/v9_0/spectre/v9_0_2/lpmos/models/mos/nd3.scs
Reading file:  /home/saul/pkg/xfab/XKIT/xh018/cadence/v9_0/spectre/v9_0_2/lpmos/models/mos/nd3_mos1.scs
Reading file:  /home/saul/pkg/xfab/XKIT/xh018/cadence/v9_0/spectre/v9_0_2/lpmos/models/mos/nd3_mos2.scs
Reading file:  /home/saul/pkg/xfab/XKIT/xh018/cadence/v9_0/spectre/v9_0_2/lpmos/models/mos/nd3i.scs
Reading file:  /home/saul/pkg/xfab/XKIT/xh018/cadence/v9_0/spectre/v9_0_2/lpmos/models/mos/nd3i_mos1.scs
Reading file:  /home/saul/pkg/xfab/XKIT/xh018/cadence/v9_0/spectre/v9_0_2/lpmos/models/mos/nd3i_mos2.scs
Reading file:  /home/saul/pkg/xfab/XKIT/xh018/cadence/v9_0/spectre/v9_0_2/lpmos/models/mos/nd3i_6.scs
Reading file:  /home/saul/pkg/xfab/XKIT/xh018/cadence/v9_0/spectre/v9_0_2/lpmos/models/mos/nd3i_m_6.scs
Reading file:  /home/saul/pkg/xfab/XKIT/xh018/cadence/v9_0/spectre/v9_0_2/lpmos/models/mos/nelna.scs
Reading file:  /home/saul/pkg/xfab/XKIT/xh018/cadence/v9_0/spectre/v9_0_2/lpmos/models/mos/nelnai.scs
Reading file:  /home/saul/pkg/xfab/XKIT/xh018/cadence/v9_0/spectre/v9_0_2/lpmos/models/mos/nelnai_6.scs
Reading file:  /home/saul/pkg/xfab/XKIT/xh018/cadence/v9_0/spectre/v9_0_2/lpmos/models/mos/nelnai_m_6.scs
Reading file:  /home/saul/pkg/xfab/XKIT/xh018/cadence/v9_0/spectre/v9_0_2/lpmos/models/mos/ne3lna.scs
Reading file:  /home/saul/pkg/xfab/XKIT/xh018/cadence/v9_0/spectre/v9_0_2/lpmos/models/mos/ne3lnai.scs
Reading file:  /home/saul/pkg/xfab/XKIT/xh018/cadence/v9_0/spectre/v9_0_2/lpmos/models/mos/ne3lnai_6.scs
Reading file:  /home/saul/pkg/xfab/XKIT/xh018/cadence/v9_0/spectre/v9_0_2/lpmos/models/mos/ne3lnai_m_6.scs
Reading file:  /home/saul/pkg/xfab/XKIT/xh018/cadence/v9_0/spectre/v9_0_2/lpmos/models/mos/pe3lna.scs
Reading file:  /home/saul/pkg/xfab/XKIT/xh018/cadence/v9_0/spectre/v9_0_2/lpmos/models/mos/pe3lna_5.scs
Reading file:  /home/saul/pkg/xfab/XKIT/xh018/cadence/v9_0/spectre/v9_0_2/lpmos/models/mos/pe3lnai.scs
Reading file:  /home/saul/pkg/xfab/XKIT/xh018/cadence/v9_0/spectre/v9_0_2/lpmos/models/mos/pe3lnai_5.scs
Reading file:  /home/saul/pkg/xfab/XKIT/xh018/cadence/v9_0/spectre/v9_0_2/lpmos/models/mos/pe3lnai_m_5.scs
Reading file:  /home/saul/pkg/xfab/XKIT/xh018/cadence/v9_0/spectre/v9_0_2/lpmos/models/mos/nmma.scs
Reading file:  /home/saul/pkg/xfab/XKIT/xh018/cadence/v9_0/spectre/v9_0_2/lpmos/models/mos/jf_nmma.scs
Reading file:  /home/saul/pkg/xfab/XKIT/xh018/cadence/v9_0/spectre/v9_0_2/lpmos/models/mos/nmma_bjt.scs
Reading file:  /home/saul/pkg/xfab/XKIT/xh018/cadence/v9_0/spectre/v9_0_2/lpmos/models/mos/pmma.scs
Reading file:  /home/saul/pkg/xfab/XKIT/xh018/cadence/v9_0/spectre/v9_0_2/lpmos/models/mos/jf_pmma.scs
Reading file:  /home/saul/pkg/xfab/XKIT/xh018/cadence/v9_0/spectre/v9_0_2/lpmos/models/mos/pmma_bjt.scs
Reading file:  /home/saul/pkg/xfab/XKIT/xh018/cadence/v9_0/spectre/v9_0_2/lpmos/models/mos/nedi.scs
Reading file:  /home/saul/pkg/xfab/XKIT/xh018/cadence/v9_0/spectre/v9_0_2/lpmos/models/mos/nedi_bjt.scs
Reading file:  /home/saul/pkg/xfab/XKIT/xh018/cadence/v9_0/spectre/v9_0_2/lpmos/models/mos/nedia.scs
Reading file:  /home/saul/pkg/xfab/XKIT/xh018/cadence/v9_0/spectre/v9_0_2/lpmos/models/mos/nedia_bjt.scs
Reading file:  /home/saul/pkg/xfab/XKIT/xh018/cadence/v9_0/spectre/v9_0_2/lpmos/models/mos/ped2.scs
Reading file:  /home/saul/pkg/xfab/XKIT/xh018/cadence/v9_0/spectre/v9_0_2/lpmos/models/mos/ped2_bjt.scs
Reading file:  /home/saul/pkg/xfab/XKIT/xh018/cadence/v9_0/spectre/v9_0_2/lpmos/models/mos/ped.scs
Reading file:  /home/saul/pkg/xfab/XKIT/xh018/cadence/v9_0/spectre/v9_0_2/lpmos/models/mos/ped_bjt.scs
Reading file:  /home/saul/pkg/xfab/XKIT/xh018/cadence/v9_0/spectre/v9_0_2/lpmos/models/mos/nhv.scs
Reading file:  /home/saul/pkg/xfab/XKIT/xh018/cadence/v9_0/spectre/v9_0_2/lpmos/models/mos/nhv_mos2.scs
Reading file:  /home/saul/pkg/xfab/XKIT/xh018/cadence/v9_0/spectre/v9_0_2/lpmos/models/mos/nhv_bjt.scs
Reading file:  /home/saul/pkg/xfab/XKIT/xh018/cadence/v9_0/spectre/v9_0_2/lpmos/models/mos/nhhv.scs
Reading file:  /home/saul/pkg/xfab/XKIT/xh018/cadence/v9_0/spectre/v9_0_2/lpmos/models/mos/nhhv_mos2.scs
Reading file:  /home/saul/pkg/xfab/XKIT/xh018/cadence/v9_0/spectre/v9_0_2/lpmos/models/mos/nhhv_bjt.scs
Reading file:  /home/saul/pkg/xfab/XKIT/xh018/cadence/v9_0/spectre/v9_0_2/lpmos/models/mos/nmmc.scs
Reading file:  /home/saul/pkg/xfab/XKIT/xh018/cadence/v9_0/spectre/v9_0_2/lpmos/models/mos/nmmc_mos2.scs
Reading file:  /home/saul/pkg/xfab/XKIT/xh018/cadence/v9_0/spectre/v9_0_2/lpmos/models/mos/nmmc_bjt.scs
Reading file:  /home/saul/pkg/xfab/XKIT/xh018/cadence/v9_0/spectre/v9_0_2/lpmos/models/mos/nmmd.scs
Reading file:  /home/saul/pkg/xfab/XKIT/xh018/cadence/v9_0/spectre/v9_0_2/lpmos/models/mos/nmmd_mos2.scs
Reading file:  /home/saul/pkg/xfab/XKIT/xh018/cadence/v9_0/spectre/v9_0_2/lpmos/models/mos/nmmd_bjt.scs
Reading file:  /home/saul/pkg/xfab/XKIT/xh018/cadence/v9_0/spectre/v9_0_2/lpmos/models/mos/nmc.scs
Reading file:  /home/saul/pkg/xfab/XKIT/xh018/cadence/v9_0/spectre/v9_0_2/lpmos/models/mos/nmc_mos2.scs
Reading file:  /home/saul/pkg/xfab/XKIT/xh018/cadence/v9_0/spectre/v9_0_2/lpmos/models/mos/nmc_bjt.scs
Reading file:  /home/saul/pkg/xfab/XKIT/xh018/cadence/v9_0/spectre/v9_0_2/lpmos/models/mos/nma.scs
Reading file:  /home/saul/pkg/xfab/XKIT/xh018/cadence/v9_0/spectre/v9_0_2/lpmos/models/mos/nma_bjt.scs
Reading file:  /home/saul/pkg/xfab/XKIT/xh018/cadence/v9_0/spectre/v9_0_2/lpmos/models/mos/phv.scs
Reading file:  /home/saul/pkg/xfab/XKIT/xh018/cadence/v9_0/spectre/v9_0_2/lpmos/models/mos/phv_mos2.scs
Reading file:  /home/saul/pkg/xfab/XKIT/xh018/cadence/v9_0/spectre/v9_0_2/lpmos/models/mos/phv_bjt.scs
Reading file:  /home/saul/pkg/xfab/XKIT/xh018/cadence/v9_0/spectre/v9_0_2/lpmos/models/mos/phhv.scs
Reading file:  /home/saul/pkg/xfab/XKIT/xh018/cadence/v9_0/spectre/v9_0_2/lpmos/models/mos/phhv_mos2.scs
Reading file:  /home/saul/pkg/xfab/XKIT/xh018/cadence/v9_0/spectre/v9_0_2/lpmos/models/mos/phhv_bjt.scs
Reading file:  /home/saul/pkg/xfab/XKIT/xh018/cadence/v9_0/spectre/v9_0_2/lpmos/models/mos/pmc.scs
Reading file:  /home/saul/pkg/xfab/XKIT/xh018/cadence/v9_0/spectre/v9_0_2/lpmos/models/mos/pmc_mos2.scs
Reading file:  /home/saul/pkg/xfab/XKIT/xh018/cadence/v9_0/spectre/v9_0_2/lpmos/models/mos/pmc_bjt.scs
Reading file:  /home/saul/pkg/xfab/XKIT/xh018/cadence/v9_0/spectre/v9_0_2/lpmos/models/mos/pmmc.scs
Reading file:  /home/saul/pkg/xfab/XKIT/xh018/cadence/v9_0/spectre/v9_0_2/lpmos/models/mos/pmmc_mos2.scs
Reading file:  /home/saul/pkg/xfab/XKIT/xh018/cadence/v9_0/spectre/v9_0_2/lpmos/models/mos/pmmc_bjt.scs
Reading file:  /home/saul/pkg/xfab/XKIT/xh018/cadence/v9_0/spectre/v9_0_2/lpmos/models/mos/pma.scs
Reading file:  /home/saul/pkg/xfab/XKIT/xh018/cadence/v9_0/spectre/v9_0_2/lpmos/models/mos/pma_bjt.scs
Reading file:  /home/saul/pkg/xfab/XKIT/xh018/cadence/v9_0/spectre/v9_0_2/lpmos/models/mos/pmb.scs
Reading file:  /home/saul/pkg/xfab/XKIT/xh018/cadence/v9_0/spectre/v9_0_2/lpmos/models/mos/nesvt.scs
Reading file:  /home/saul/pkg/xfab/XKIT/xh018/cadence/v9_0/spectre/v9_0_2/lpmos/models/mos/nesvti.scs
Reading file:  /home/saul/pkg/xfab/XKIT/xh018/cadence/v9_0/spectre/v9_0_2/lpmos/models/mos/nesvti_6.scs
Reading file:  /home/saul/pkg/xfab/XKIT/xh018/cadence/v9_0/spectre/v9_0_2/lpmos/models/mos/nesvti_m_6.scs
Reading file:  /home/saul/pkg/xfab/XKIT/xh018/cadence/v9_0/spectre/v9_0_2/lpmos/models/mos/pesvt.scs
Reading file:  /home/saul/pkg/xfab/XKIT/xh018/cadence/v9_0/spectre/v9_0_2/lpmos/models/mos/pesvt_5.scs
Reading file:  /home/saul/pkg/xfab/XKIT/xh018/cadence/v9_0/spectre/v9_0_2/lpmos/models/mos/pesvti.scs
Reading file:  /home/saul/pkg/xfab/XKIT/xh018/cadence/v9_0/spectre/v9_0_2/lpmos/models/mos/pesvti_5.scs
Reading file:  /home/saul/pkg/xfab/XKIT/xh018/cadence/v9_0/spectre/v9_0_2/lpmos/models/mos/pesvti_m_5.scs
Reading file:  /home/saul/pkg/xfab/XKIT/xh018/cadence/v9_0/spectre/v9_0_2/lpmos/models/mos/nhvd.scs
Reading file:  /home/saul/pkg/xfab/XKIT/xh018/cadence/v9_0/spectre/v9_0_2/lpmos/models/mos/nhvd_bjt.scs
Reading file:  /home/saul/pkg/xfab/XKIT/xh018/cadence/v9_0/spectre/v9_0_2/lpmos/models/mos/nhhvd.scs
Reading file:  /home/saul/pkg/xfab/XKIT/xh018/cadence/v9_0/spectre/v9_0_2/lpmos/models/mos/nhhvd_bjt.scs
Reading file:  /home/saul/pkg/xfab/XKIT/xh018/cadence/v9_0/spectre/v9_0_2/lpmos/photo.scs
Reading file:  /home/saul/pkg/xfab/XKIT/xh018/cadence/v9_0/spectre/v9_0_2/lpmos/models/photo/tm_pho.scs
Reading file:  /home/saul/pkg/xfab/XKIT/xh018/cadence/v9_0/spectre/v9_0_2/lpmos/models/photo/dphoa.scs
Reading file:  /home/saul/pkg/xfab/XKIT/xh018/cadence/v9_0/spectre/v9_0_2/lpmos/models/photo/dpho.va
Reading link:  /pkg/cadence/installs/SPECTRE231/tools.lnx86/spectre/etc/ahdl/constants.h
Reading file:  /home/saul/cadence/installs/SPECTRE231/tools.lnx86/spectre/etc/ahdl/constants.vams
Reading link:  /pkg/cadence/installs/SPECTRE231/tools.lnx86/spectre/etc/ahdl/discipline.h
Reading file:  /home/saul/cadence/installs/SPECTRE231/tools.lnx86/spectre/etc/ahdl/disciplines.vams
Reading file:  /home/saul/pkg/xfab/XKIT/xh018/cadence/v9_0/spectre/v9_0_2/lpmos/models/photo/dphob.scs
Reading file:  /home/saul/pkg/xfab/XKIT/xh018/cadence/v9_0/spectre/v9_0_2/lpmos/models/photo/dphoc.scs
Reading file:  /home/saul/pkg/xfab/XKIT/xh018/cadence/v9_0/spectre/v9_0_2/lpmos/models/photo/iphoto_uv.va
Reading file:  /home/saul/pkg/xfab/XKIT/xh018/cadence/v9_0/spectre/v9_0_2/lpmos/models/photo/dphoc_cat.scs
Reading file:  /home/saul/pkg/xfab/XKIT/xh018/cadence/v9_0/spectre/v9_0_2/lpmos/models/photo/dphoc0.scs
Reading file:  /home/saul/pkg/xfab/XKIT/xh018/cadence/v9_0/spectre/v9_0_2/lpmos/models/photo/dphoc0_cat.scs
Reading file:  /home/saul/pkg/xfab/XKIT/xh018/cadence/v9_0/spectre/v9_0_2/lpmos/models/photo/dphocfp.scs
Reading file:  /home/saul/pkg/xfab/XKIT/xh018/cadence/v9_0/spectre/v9_0_2/lpmos/models/photo/dphocfp_cat.scs
Reading file:  /home/saul/pkg/xfab/XKIT/xh018/cadence/v9_0/spectre/v9_0_2/lpmos/models/photo/dphod.scs
Reading file:  /home/saul/pkg/xfab/XKIT/xh018/cadence/v9_0/spectre/v9_0_2/lpmos/models/photo/dphod_an1.scs
Reading file:  /home/saul/pkg/xfab/XKIT/xh018/cadence/v9_0/spectre/v9_0_2/lpmos/models/photo/dphod_an2.scs
Reading file:  /home/saul/pkg/xfab/XKIT/xh018/cadence/v9_0/spectre/v9_0_2/lpmos/models/photo/dphod0.scs
Reading file:  /home/saul/pkg/xfab/XKIT/xh018/cadence/v9_0/spectre/v9_0_2/lpmos/models/photo/dphod0_an1.scs
Reading file:  /home/saul/pkg/xfab/XKIT/xh018/cadence/v9_0/spectre/v9_0_2/lpmos/models/photo/dphod0_an2.scs
Reading file:  /home/saul/pkg/xfab/XKIT/xh018/cadence/v9_0/spectre/v9_0_2/lpmos/models/photo/dphodfp.scs
Reading file:  /home/saul/pkg/xfab/XKIT/xh018/cadence/v9_0/spectre/v9_0_2/lpmos/models/photo/dphodfp_an1.scs
Reading file:  /home/saul/pkg/xfab/XKIT/xh018/cadence/v9_0/spectre/v9_0_2/lpmos/models/photo/dphodfp_an2.scs
Reading file:  /home/saul/pkg/xfab/XKIT/xh018/cadence/v9_0/spectre/v9_0_2/lpmos/models/photo/dspada0.scs
Reading file:  /home/saul/pkg/xfab/XKIT/xh018/cadence/v9_0/spectre/v9_0_2/lpmos/models/photo/ispad.va
Reading file:  /home/saul/pkg/xfab/XKIT/xh018/cadence/v9_0/spectre/v9_0_2/lpmos/models/photo/dapb.scs
Reading file:  /home/saul/pkg/xfab/XKIT/xh018/cadence/v9_0/spectre/v9_0_2/lpmos/models/photo/iphoto_apd_trig.va
Reading file:  /home/saul/pkg/xfab/XKIT/xh018/cadence/v9_0/spectre/v9_0_2/lpmos/models/photo/dapb_jun.scs
Reading file:  /home/saul/pkg/xfab/XKIT/xh018/cadence/v9_0/spectre/v9_0_2/lpmos/models/photo/dapb_trig.scs
Reading file:  /home/saul/pkg/xfab/XKIT/xh018/cadence/v9_0/spectre/v9_0_2/lpmos/models/photo/dapb0.scs
Reading file:  /home/saul/pkg/xfab/XKIT/xh018/cadence/v9_0/spectre/v9_0_2/lpmos/models/photo/dapb0_jun.scs
Reading file:  /home/saul/pkg/xfab/XKIT/xh018/cadence/v9_0/spectre/v9_0_2/lpmos/models/photo/dspb.scs
Reading file:  /home/saul/pkg/xfab/XKIT/xh018/cadence/v9_0/spectre/v9_0_2/lpmos/models/photo/ispad_trig.va
Reading file:  /home/saul/pkg/xfab/XKIT/xh018/cadence/v9_0/spectre/v9_0_2/lpmos/models/photo/dspb_jun.scs
Reading file:  /home/saul/pkg/xfab/XKIT/xh018/cadence/v9_0/spectre/v9_0_2/lpmos/models/photo/dspb_trig.scs
Reading file:  /home/saul/pkg/xfab/XKIT/xh018/cadence/v9_0/spectre/v9_0_2/lpmos/models/photo/dspb0.scs
Reading file:  /home/saul/pkg/xfab/XKIT/xh018/cadence/v9_0/spectre/v9_0_2/lpmos/models/photo/dspb0_jun.scs
Reading file:  /home/saul/pkg/xfab/XKIT/xh018/cadence/v9_0/spectre/v9_0_2/lpmos/models/photo/dspbfep.scs
Reading file:  /home/saul/pkg/xfab/XKIT/xh018/cadence/v9_0/spectre/v9_0_2/lpmos/models/photo/dapda.scs
Reading file:  /home/saul/pkg/xfab/XKIT/xh018/cadence/v9_0/spectre/v9_0_2/lpmos/models/photo/iphoto_apd.va
Reading file:  /home/saul/pkg/xfab/XKIT/xh018/cadence/v9_0/spectre/v9_0_2/lpmos/models/photo/dapda_cat.scs
Reading file:  /home/saul/pkg/xfab/XKIT/xh018/cadence/v9_0/spectre/v9_0_2/lpmos/models/photo/dapda0.scs
Reading file:  /home/saul/pkg/xfab/XKIT/xh018/cadence/v9_0/spectre/v9_0_2/lpmos/models/photo/dspada.scs
Reading file:  /home/saul/pkg/xfab/XKIT/xh018/cadence/v9_0/spectre/v9_0_2/lpmos/models/photo/dspada_cat.scs
Reading file:  /home/saul/pkg/xfab/XKIT/xh018/cadence/v9_0/spectre/v9_0_2/lpmos/res.scs
Reading file:  /home/saul/pkg/xfab/XKIT/xh018/cadence/v9_0/spectre/v9_0_2/lpmos/models/res/tm_res.scs
Reading file:  /home/saul/pkg/xfab/XKIT/xh018/cadence/v9_0/spectre/v9_0_2/lpmos/models/res/rdn.scs
Reading file:  /home/saul/pkg/xfab/XKIT/xh018/cadence/v9_0/spectre/v9_0_2/lpmos/models/res/rdn_esd.scs
Reading file:  /home/saul/pkg/xfab/XKIT/xh018/cadence/v9_0/spectre/v9_0_2/lpmos/models/res/rdp.scs
Reading file:  /home/saul/pkg/xfab/XKIT/xh018/cadence/v9_0/spectre/v9_0_2/lpmos/models/res/rdp_io.scs
Reading file:  /home/saul/pkg/xfab/XKIT/xh018/cadence/v9_0/spectre/v9_0_2/lpmos/models/res/rdp_esd.scs
Reading file:  /home/saul/pkg/xfab/XKIT/xh018/cadence/v9_0/spectre/v9_0_2/lpmos/models/res/rnw.scs
Reading file:  /home/saul/pkg/xfab/XKIT/xh018/cadence/v9_0/spectre/v9_0_2/lpmos/models/res/rnw_scr.scs
Reading file:  /home/saul/pkg/xfab/XKIT/xh018/cadence/v9_0/spectre/v9_0_2/lpmos/models/res/rdn3.scs
Reading file:  /home/saul/pkg/xfab/XKIT/xh018/cadence/v9_0/spectre/v9_0_2/lpmos/models/res/rdp3.scs
Reading file:  /home/saul/pkg/xfab/XKIT/xh018/cadence/v9_0/spectre/v9_0_2/lpmos/models/res/rnw3.scs
Reading file:  /home/saul/pkg/xfab/XKIT/xh018/cadence/v9_0/spectre/v9_0_2/lpmos/models/res/rnw3_scr.scs
Reading file:  /home/saul/pkg/xfab/XKIT/xh018/cadence/v9_0/spectre/v9_0_2/lpmos/models/res/rdnwmv.scs
Reading file:  /home/saul/pkg/xfab/XKIT/xh018/cadence/v9_0/spectre/v9_0_2/lpmos/models/res/rnp1.scs
Reading file:  /home/saul/pkg/xfab/XKIT/xh018/cadence/v9_0/spectre/v9_0_2/lpmos/models/res/rnp1_3.scs
Reading file:  /home/saul/pkg/xfab/XKIT/xh018/cadence/v9_0/spectre/v9_0_2/lpmos/models/res/rpp1.scs
Reading file:  /home/saul/pkg/xfab/XKIT/xh018/cadence/v9_0/spectre/v9_0_2/lpmos/models/res/rpp1_3.scs
Reading file:  /home/saul/pkg/xfab/XKIT/xh018/cadence/v9_0/spectre/v9_0_2/lpmos/models/res/rpp1s.scs
Reading file:  /home/saul/pkg/xfab/XKIT/xh018/cadence/v9_0/spectre/v9_0_2/lpmos/models/res/rpp1s_3.scs
Reading file:  /home/saul/pkg/xfab/XKIT/xh018/cadence/v9_0/spectre/v9_0_2/lpmos/models/res/rnp1h.scs
Reading file:  /home/saul/pkg/xfab/XKIT/xh018/cadence/v9_0/spectre/v9_0_2/lpmos/models/res/rnp1h_3.scs
Reading file:  /home/saul/pkg/xfab/XKIT/xh018/cadence/v9_0/spectre/v9_0_2/lpmos/models/res/rpp1k1.scs
Reading file:  /home/saul/pkg/xfab/XKIT/xh018/cadence/v9_0/spectre/v9_0_2/lpmos/models/res/rpp1k1_3.scs
Reading file:  /home/saul/pkg/xfab/XKIT/xh018/cadence/v9_0/spectre/v9_0_2/lpmos/models/res/rctdn.scs
Reading file:  /home/saul/pkg/xfab/XKIT/xh018/cadence/v9_0/spectre/v9_0_2/lpmos/models/res/rctdp.scs
Reading file:  /home/saul/pkg/xfab/XKIT/xh018/cadence/v9_0/spectre/v9_0_2/lpmos/models/res/rctp1.scs
Reading file:  /home/saul/pkg/xfab/XKIT/xh018/cadence/v9_0/spectre/v9_0_2/lpmos/models/res/rsildn.scs
Reading file:  /home/saul/pkg/xfab/XKIT/xh018/cadence/v9_0/spectre/v9_0_2/lpmos/models/res/rsildp.scs
Reading file:  /home/saul/pkg/xfab/XKIT/xh018/cadence/v9_0/spectre/v9_0_2/lpmos/models/res/rsilnp1.scs
Reading file:  /home/saul/pkg/xfab/XKIT/xh018/cadence/v9_0/spectre/v9_0_2/lpmos/models/res/rsilpp1.scs
Reading file:  /home/saul/pkg/xfab/XKIT/xh018/cadence/v9_0/spectre/v9_0_2/lpmos/models/res/rsbdn.scs
Reading file:  /home/saul/pkg/xfab/XKIT/xh018/cadence/v9_0/spectre/v9_0_2/lpmos/models/res/rsbdp.scs
Reading file:  /home/saul/pkg/xfab/XKIT/xh018/cadence/v9_0/spectre/v9_0_2/lpmos/models/res/rsbdn3.scs
Reading file:  /home/saul/pkg/xfab/XKIT/xh018/cadence/v9_0/spectre/v9_0_2/lpmos/models/res/rsbdp3.scs
Reading file:  /home/saul/pkg/xfab/XKIT/xh018/cadence/v9_0/spectre/v9_0_2/lpmos/models/res/rsbnp1.scs
Reading file:  /home/saul/pkg/xfab/XKIT/xh018/cadence/v9_0/spectre/v9_0_2/lpmos/models/res/rsbpp1.scs
Reading file:  /home/saul/pkg/xfab/XKIT/xh018/cadence/v9_0/spectre/v9_0_2/lpmos/models/res/rsbpp1k1.scs
Reading file:  /home/saul/pkg/xfab/XKIT/xh018/cadence/v9_0/spectre/v9_0_2/lpmos/models/res/rm1.scs
Reading file:  /home/saul/pkg/xfab/XKIT/xh018/cadence/v9_0/spectre/v9_0_2/lpmos/models/res/rm2.scs
Reading file:  /home/saul/pkg/xfab/XKIT/xh018/cadence/v9_0/spectre/v9_0_2/lpmos/models/res/rm3.scs
Reading file:  /home/saul/pkg/xfab/XKIT/xh018/cadence/v9_0/spectre/v9_0_2/lpmos/models/res/rm4.scs
Reading file:  /home/saul/pkg/xfab/XKIT/xh018/cadence/v9_0/spectre/v9_0_2/lpmos/models/res/rm5.scs
Reading file:  /home/saul/pkg/xfab/XKIT/xh018/cadence/v9_0/spectre/v9_0_2/lpmos/models/res/rmtp.scs
Reading file:  /home/saul/pkg/xfab/XKIT/xh018/cadence/v9_0/spectre/v9_0_2/lpmos/models/res/rmtpl.scs
Reading file:  /home/saul/pkg/xfab/XKIT/xh018/cadence/v9_0/spectre/v9_0_2/lpmos/models/res/pfuse.scs
Reading file:  /home/saul/pkg/xfab/XKIT/xh018/cadence/v9_0/spectre/v9_0_2/lpmos/models/res/s_res.scs
Time for NDB Parsing: CPU = 165.846 ms, elapsed = 371.147 ms.
Time accumulated: CPU = 212.174 ms, elapsed = 371.149 ms.
Peak resident memory used = 120 Mbytes.

Time for Elaboration: CPU = 13.16 ms, elapsed = 13.0799 ms.
Time accumulated: CPU = 225.409 ms, elapsed = 384.303 ms.
Peak resident memory used = 127 Mbytes.


Notice from spectre during hierarchy flattening.
    The value 'psf' specified for the 'checklimitdest' option will no longer be supported in future releases. Use 'spectre -h' to see other recommended values for the 'checklimitdest' option.


Time for EDB Visiting: CPU = 515 us, elapsed = 514.984 us.
Time accumulated: CPU = 226.008 ms, elapsed = 384.902 ms.
Peak resident memory used = 128 Mbytes.


Error found by spectre during initial setup.
    ERROR (CMI-2440): "/home/saul/pkg/xfab/XKIT/xh018/cadence/v9_0/spectre/v9_0_2/lpmos/./models/mos/ne3.scs" 32: M0.m1:  The length, width, or area of the instance does not fit the given lmax-lmin, wmax-wmin, or areamax-areamin range for any model in the `M0.ne3mod' group. The unscaled values for these instance parameters are w=1.000000e-05 and l=1.800000e-07 with scale=1.000000e+00. Ensure that the width and length values are in the bounds set by Lmax=2.000100e-04, Lmin=3.480000e-07, Wmax=2.000100e-04 and Wmin=2.090000e-07. Alternatively, you can choose the nearest model by setting the value of `soft_bin' option to `allmodels'.

Licensing Information:
Lic Summary:
[12:23:02.288098] Cdslmd servers:3000@lic08.ug.kth.se
[12:23:02.288115] Feature usage summary:
[12:23:02.288115] Virtuoso_Multi_mode_Simulation


Aggregate audit (12:23:02 PM, Sun Feb 18, 2024):
Time used: CPU = 229 ms, elapsed = 391 ms, util. = 58.4%.
Time spent in licensing: elapsed = 284 ms, percentage of total = 72.5%.
Peak memory used = 129 Mbytes.
Simulation started at: 12:23:02 PM, Sun Feb 18, 2024, ended at: 12:23:02 PM, Sun Feb 18, 2024, with elapsed time (wall clock): 391 ms.
spectre completes with 1 error, 0 warnings, and 1 notice.
spectre terminated prematurely due to fatal error.


********* LOG ENDS **************
**                             **
**                             **
********* LOG STARTS ************



Spectre (R) Circuit Simulator
Version 23.1.0.305.isr3 64bit -- 13 Nov 2023
Copyright (C) 1989-2023 Cadence Design Systems, Inc. All rights reserved worldwide. Cadence and Spectre are registered trademarks of Cadence Design Systems, Inc. All others are the property of their respective holders.

Includes RSA BSAFE(R) Cryptographic or Security Protocol Software from RSA Security, Inc.

User: saul   Host: phoenix   HostID: A0F02   PID: 29736
Memory  available: 12.1248 GB  physical: 16.6560 GB
Linux   : CentOS Linux release 7 (Core)
CPU Type: 11th Gen Intel(R) Core(TM) i7-11700K @ 3.60GHz
All processors running at 3600.0 MHz
        Socket: Processors
        0:       0,  1,  2,  3,  4,  5
        
System load averages (1min, 5min, 15min) : 4.0 %, 2.3 %, 4.3 %
HPC is enabled


Simulating `input.scs' on phoenix at 12:23:02 PM, Sun Feb 18, 2024 (process id: 29736).
Current working directory: /home/saul/projects/XH018_mixed_ji3/test_mix/virtuoso/Sim/CHARACTERIZATION/DC_BIAS_NMOS_3/adexl/results/data/Ocean.2/2/CHARACTERIZATION:DC_BIAS_NMOS_L:1/netlist
Command line:
    /pkg/cadence/installs/SPECTRE231/tools/bin/spectre -64 input.scs  \
        +escchars +log ../psf/spectre.out -format psfxl -raw ../psf  \
        ++aps +mt +lqtimeout 900 -maxw 5 -maxn 5 -env ade -ahdllibdir  \
        /home/saul/projects/XH018_mixed_ji3/test_mix/virtuoso/Sim/CHARACTERIZATION/DC_BIAS_NMOS_3/adexl/results/data/Ocean.2/sharedData/Job240/ahdl/input.ahdlSimDB  \
        +logstatus

Licensing Information:
[12:23:02.512337] Configured Lic search path (22.01-s002): 3000@lic08.ug.kth.se

Licensing Information:
[12:23:02.095513] Periodic Lic check successful

Loading /pkg/cadence/installs/SPECTRE231/tools.lnx86/cmi/lib/64bit/5.0/libinfineon_sh.so ...
Loading /pkg/cadence/installs/SPECTRE231/tools.lnx86/cmi/lib/64bit/5.0/libphilips_I_sh.so ...
Loading /pkg/cadence/installs/SPECTRE231/tools.lnx86/cmi/lib/64bit/5.0/libphilips_sh.so ...
Loading /pkg/cadence/installs/SPECTRE231/tools.lnx86/cmi/lib/64bit/5.0/libsparam_sh.so ...
Loading /pkg/cadence/installs/SPECTRE231/tools.lnx86/cmi/lib/64bit/5.0/libstmodels_sh.so ...
Reading file:  /home/saul/projects/XH018_mixed_ji3/test_mix/virtuoso/Sim/CHARACTERIZATION/DC_BIAS_NMOS_3/adexl/results/data/Ocean.2/2/CHARACTERIZATION:DC_BIAS_NMOS_L:1/netlist/input.scs
Reading link:  /pkg/cadence
Reading file:  /home/saul/cadence/installs/SPECTRE231/tools.lnx86/spectre/etc/configs/spectre.cfg
Reading file:  /home/saul/pkg/xfab/XKIT/xh018/cadence/v9_0/spectre/v9_0_2/lpmos/config.scs
Reading file:  /home/saul/pkg/xfab/XKIT/xh018/cadence/v9_0/spectre/v9_0_2/lpmos/param.scs
Reading file:  /home/saul/pkg/xfab/XKIT/xh018/cadence/v9_0/spectre/v9_0_2/lpmos/bip.scs
Reading file:  /home/saul/pkg/xfab/XKIT/xh018/cadence/v9_0/spectre/v9_0_2/lpmos/models/bip/tm_bip.scs
Reading file:  /home/saul/pkg/xfab/XKIT/xh018/cadence/v9_0/spectre/v9_0_2/lpmos/models/bip/qpva.scs
Reading file:  /home/saul/pkg/xfab/XKIT/xh018/cadence/v9_0/spectre/v9_0_2/lpmos/models/bip/qpvb.scs
Reading file:  /home/saul/pkg/xfab/XKIT/xh018/cadence/v9_0/spectre/v9_0_2/lpmos/models/bip/qpvc.scs
Reading file:  /home/saul/pkg/xfab/XKIT/xh018/cadence/v9_0/spectre/v9_0_2/lpmos/models/bip/qpva3.scs
Reading file:  /home/saul/pkg/xfab/XKIT/xh018/cadence/v9_0/spectre/v9_0_2/lpmos/models/bip/qpvb3.scs
Reading file:  /home/saul/pkg/xfab/XKIT/xh018/cadence/v9_0/spectre/v9_0_2/lpmos/models/bip/qpvc3.scs
Reading file:  /home/saul/pkg/xfab/XKIT/xh018/cadence/v9_0/spectre/v9_0_2/lpmos/models/bip/qnva.scs
Reading file:  /home/saul/pkg/xfab/XKIT/xh018/cadence/v9_0/spectre/v9_0_2/lpmos/models/bip/qnvb.scs
Reading file:  /home/saul/pkg/xfab/XKIT/xh018/cadence/v9_0/spectre/v9_0_2/lpmos/models/bip/qnvb_npn.scs
Reading file:  /home/saul/pkg/xfab/XKIT/xh018/cadence/v9_0/spectre/v9_0_2/lpmos/models/bip/qnvb_pnp.scs
Reading file:  /home/saul/pkg/xfab/XKIT/xh018/cadence/v9_0/spectre/v9_0_2/lpmos/models/bip/qnvc.scs
Reading file:  /home/saul/pkg/xfab/XKIT/xh018/cadence/v9_0/spectre/v9_0_2/lpmos/models/bip/qnvc_npn.scs
Reading file:  /home/saul/pkg/xfab/XKIT/xh018/cadence/v9_0/spectre/v9_0_2/lpmos/models/bip/qnvc_pnp.scs
Reading file:  /home/saul/pkg/xfab/XKIT/xh018/cadence/v9_0/spectre/v9_0_2/lpmos/models/bip/qpvhscr.scs
Reading file:  /home/saul/pkg/xfab/XKIT/xh018/cadence/v9_0/spectre/v9_0_2/lpmos/models/bip/qpvascr.scs
Reading file:  /home/saul/pkg/xfab/XKIT/xh018/cadence/v9_0/spectre/v9_0_2/lpmos/models/bip/qpvhbscr.scs
Reading file:  /home/saul/pkg/xfab/XKIT/xh018/cadence/v9_0/spectre/v9_0_2/lpmos/models/bip/qnvba.scs
Reading file:  /home/saul/pkg/xfab/XKIT/xh018/cadence/v9_0/spectre/v9_0_2/lpmos/models/bip/qnvba_npn.scs
Reading file:  /home/saul/pkg/xfab/XKIT/xh018/cadence/v9_0/spectre/v9_0_2/lpmos/models/bip/qnvba_pnp.scs
Reading file:  /home/saul/pkg/xfab/XKIT/xh018/cadence/v9_0/spectre/v9_0_2/lpmos/models/bip/qnvca.scs
Reading file:  /home/saul/pkg/xfab/XKIT/xh018/cadence/v9_0/spectre/v9_0_2/lpmos/models/bip/qnvca_npn.scs
Reading file:  /home/saul/pkg/xfab/XKIT/xh018/cadence/v9_0/spectre/v9_0_2/lpmos/models/bip/qnvca_pnp.scs
Reading file:  /home/saul/pkg/xfab/XKIT/xh018/cadence/v9_0/spectre/v9_0_2/lpmos/models/bip/qpv_pa.scs
Reading file:  /home/saul/pkg/xfab/XKIT/xh018/cadence/v9_0/spectre/v9_0_2/lpmos/models/bip/qpv_pb.scs
Reading file:  /home/saul/pkg/xfab/XKIT/xh018/cadence/v9_0/spectre/v9_0_2/lpmos/models/bip/qpv_pc.scs
Reading file:  /home/saul/pkg/xfab/XKIT/xh018/cadence/v9_0/spectre/v9_0_2/lpmos/models/bip/qpv_pd.scs
Reading file:  /home/saul/pkg/xfab/XKIT/xh018/cadence/v9_0/spectre/v9_0_2/lpmos/models/bip/qpv_pe.scs
Reading file:  /home/saul/pkg/xfab/XKIT/xh018/cadence/v9_0/spectre/v9_0_2/lpmos/models/bip/qpv_pf.scs
Reading file:  /home/saul/pkg/xfab/XKIT/xh018/cadence/v9_0/spectre/v9_0_2/lpmos/models/bip/qpl_pa.scs
Reading file:  /home/saul/pkg/xfab/XKIT/xh018/cadence/v9_0/spectre/v9_0_2/lpmos/models/bip/qpl_pb.scs
Reading file:  /home/saul/pkg/xfab/XKIT/xh018/cadence/v9_0/spectre/v9_0_2/lpmos/models/bip/qpl_pc.scs
Reading file:  /home/saul/pkg/xfab/XKIT/xh018/cadence/v9_0/spectre/v9_0_2/lpmos/models/bip/qpl_pd.scs
Reading file:  /home/saul/pkg/xfab/XKIT/xh018/cadence/v9_0/spectre/v9_0_2/lpmos/models/bip/qpl_pe.scs
Reading file:  /home/saul/pkg/xfab/XKIT/xh018/cadence/v9_0/spectre/v9_0_2/lpmos/models/bip/qpl_pf.scs
Reading file:  /home/saul/pkg/xfab/XKIT/xh018/cadence/v9_0/spectre/v9_0_2/lpmos/models/bip/qnl_pa.scs
Reading file:  /home/saul/pkg/xfab/XKIT/xh018/cadence/v9_0/spectre/v9_0_2/lpmos/models/bip/qnl_pb.scs
Reading file:  /home/saul/pkg/xfab/XKIT/xh018/cadence/v9_0/spectre/v9_0_2/lpmos/models/bip/qnl_pc.scs
Reading file:  /home/saul/pkg/xfab/XKIT/xh018/cadence/v9_0/spectre/v9_0_2/lpmos/models/bip/qnl_pd.scs
Reading file:  /home/saul/pkg/xfab/XKIT/xh018/cadence/v9_0/spectre/v9_0_2/lpmos/models/bip/qnl_pe.scs
Reading file:  /home/saul/pkg/xfab/XKIT/xh018/cadence/v9_0/spectre/v9_0_2/lpmos/models/bip/qnl_pf.scs
Reading file:  /home/saul/pkg/xfab/XKIT/xh018/cadence/v9_0/spectre/v9_0_2/lpmos/cap.scs
Reading file:  /home/saul/pkg/xfab/XKIT/xh018/cadence/v9_0/spectre/v9_0_2/lpmos/models/cap/tm_cap.scs
Reading file:  /home/saul/pkg/xfab/XKIT/xh018/cadence/v9_0/spectre/v9_0_2/lpmos/models/cap/csandwt3.scs
Reading file:  /home/saul/pkg/xfab/XKIT/xh018/cadence/v9_0/spectre/v9_0_2/lpmos/models/cap/csandwt4.scs
Reading file:  /home/saul/pkg/xfab/XKIT/xh018/cadence/v9_0/spectre/v9_0_2/lpmos/models/cap/csandwt5.scs
Reading file:  /home/saul/pkg/xfab/XKIT/xh018/cadence/v9_0/spectre/v9_0_2/lpmos/models/cap/csf2p.scs
Reading file:  /home/saul/pkg/xfab/XKIT/xh018/cadence/v9_0/spectre/v9_0_2/lpmos/models/cap/csf3p.scs
Reading file:  /home/saul/pkg/xfab/XKIT/xh018/cadence/v9_0/spectre/v9_0_2/lpmos/models/cap/csf3.scs
Reading file:  /home/saul/pkg/xfab/XKIT/xh018/cadence/v9_0/spectre/v9_0_2/lpmos/models/cap/csf4.scs
Reading file:  /home/saul/pkg/xfab/XKIT/xh018/cadence/v9_0/spectre/v9_0_2/lpmos/models/cap/csf5.scs
Reading file:  /home/saul/pkg/xfab/XKIT/xh018/cadence/v9_0/spectre/v9_0_2/lpmos/models/cap/csft4.scs
Reading file:  /home/saul/pkg/xfab/XKIT/xh018/cadence/v9_0/spectre/v9_0_2/lpmos/models/cap/csft5.scs
Reading file:  /home/saul/pkg/xfab/XKIT/xh018/cadence/v9_0/spectre/v9_0_2/lpmos/models/cap/csft6.scs
Reading file:  /home/saul/pkg/xfab/XKIT/xh018/cadence/v9_0/spectre/v9_0_2/lpmos/models/cap/csf3a.scs
Reading file:  /home/saul/pkg/xfab/XKIT/xh018/cadence/v9_0/spectre/v9_0_2/lpmos/models/cap/csf4a.scs
Reading file:  /home/saul/pkg/xfab/XKIT/xh018/cadence/v9_0/spectre/v9_0_2/lpmos/models/cap/csf5a.scs
Reading file:  /home/saul/pkg/xfab/XKIT/xh018/cadence/v9_0/spectre/v9_0_2/lpmos/models/cap/csft4a.scs
Reading file:  /home/saul/pkg/xfab/XKIT/xh018/cadence/v9_0/spectre/v9_0_2/lpmos/models/cap/csft5a.scs
Reading file:  /home/saul/pkg/xfab/XKIT/xh018/cadence/v9_0/spectre/v9_0_2/lpmos/models/cap/csft6a.scs
Reading file:  /home/saul/pkg/xfab/XKIT/xh018/cadence/v9_0/spectre/v9_0_2/lpmos/models/cap/cif3a.scs
Reading file:  /home/saul/pkg/xfab/XKIT/xh018/cadence/v9_0/spectre/v9_0_2/lpmos/models/cap/cif4a.scs
Reading file:  /home/saul/pkg/xfab/XKIT/xh018/cadence/v9_0/spectre/v9_0_2/lpmos/models/cap/cif5a.scs
Reading file:  /home/saul/pkg/xfab/XKIT/xh018/cadence/v9_0/spectre/v9_0_2/lpmos/models/cap/cift4a.scs
Reading file:  /home/saul/pkg/xfab/XKIT/xh018/cadence/v9_0/spectre/v9_0_2/lpmos/models/cap/cift5a.scs
Reading file:  /home/saul/pkg/xfab/XKIT/xh018/cadence/v9_0/spectre/v9_0_2/lpmos/models/cap/cift6a.scs
Reading file:  /home/saul/pkg/xfab/XKIT/xh018/cadence/v9_0/spectre/v9_0_2/lpmos/models/cap/cmm3.scs
Reading file:  /home/saul/pkg/xfab/XKIT/xh018/cadence/v9_0/spectre/v9_0_2/lpmos/models/cap/cmm4t.scs
Reading file:  /home/saul/pkg/xfab/XKIT/xh018/cadence/v9_0/spectre/v9_0_2/lpmos/models/cap/cmm4.scs
Reading file:  /home/saul/pkg/xfab/XKIT/xh018/cadence/v9_0/spectre/v9_0_2/lpmos/models/cap/cmm5t.scs
Reading file:  /home/saul/pkg/xfab/XKIT/xh018/cadence/v9_0/spectre/v9_0_2/lpmos/models/cap/cmm6t.scs
Reading file:  /home/saul/pkg/xfab/XKIT/xh018/cadence/v9_0/spectre/v9_0_2/lpmos/models/cap/cdmm4.scs
Reading file:  /home/saul/pkg/xfab/XKIT/xh018/cadence/v9_0/spectre/v9_0_2/lpmos/models/cap/cdmm4t.scs
Reading file:  /home/saul/pkg/xfab/XKIT/xh018/cadence/v9_0/spectre/v9_0_2/lpmos/models/cap/ctmm5.scs
Reading file:  /home/saul/pkg/xfab/XKIT/xh018/cadence/v9_0/spectre/v9_0_2/lpmos/models/cap/ctmm5t.scs
Reading file:  /home/saul/pkg/xfab/XKIT/xh018/cadence/v9_0/spectre/v9_0_2/lpmos/models/cap/cmmh3.scs
Reading file:  /home/saul/pkg/xfab/XKIT/xh018/cadence/v9_0/spectre/v9_0_2/lpmos/models/cap/cmmh4t.scs
Reading file:  /home/saul/pkg/xfab/XKIT/xh018/cadence/v9_0/spectre/v9_0_2/lpmos/models/cap/cmmh4.scs
Reading file:  /home/saul/pkg/xfab/XKIT/xh018/cadence/v9_0/spectre/v9_0_2/lpmos/models/cap/cmmh5t.scs
Reading file:  /home/saul/pkg/xfab/XKIT/xh018/cadence/v9_0/spectre/v9_0_2/lpmos/models/cap/cmmh6t.scs
Reading file:  /home/saul/pkg/xfab/XKIT/xh018/cadence/v9_0/spectre/v9_0_2/lpmos/models/cap/cdmmh4.scs
Reading file:  /home/saul/pkg/xfab/XKIT/xh018/cadence/v9_0/spectre/v9_0_2/lpmos/models/cap/cdmmh4t.scs
Reading file:  /home/saul/pkg/xfab/XKIT/xh018/cadence/v9_0/spectre/v9_0_2/lpmos/models/cap/ctmmh5.scs
Reading file:  /home/saul/pkg/xfab/XKIT/xh018/cadence/v9_0/spectre/v9_0_2/lpmos/models/cap/ctmmh5t.scs
Reading file:  /home/saul/pkg/xfab/XKIT/xh018/cadence/v9_0/spectre/v9_0_2/lpmos/models/cap/mosvc.scs
Reading file:  /home/saul/pkg/xfab/XKIT/xh018/cadence/v9_0/spectre/v9_0_2/lpmos/models/cap/mosvc_pmos.scs
Reading file:  /home/saul/pkg/xfab/XKIT/xh018/cadence/v9_0/spectre/v9_0_2/lpmos/models/cap/mosvci.scs
Reading file:  /home/saul/pkg/xfab/XKIT/xh018/cadence/v9_0/spectre/v9_0_2/lpmos/models/cap/mosvci_nmos.scs
Reading file:  /home/saul/pkg/xfab/XKIT/xh018/cadence/v9_0/spectre/v9_0_2/lpmos/models/cap/mosvci_m.scs
Reading file:  /home/saul/pkg/xfab/XKIT/xh018/cadence/v9_0/spectre/v9_0_2/lpmos/models/cap/mosvc3.scs
Reading file:  /home/saul/pkg/xfab/XKIT/xh018/cadence/v9_0/spectre/v9_0_2/lpmos/models/cap/mosvc3_pmos.scs
Reading file:  /home/saul/pkg/xfab/XKIT/xh018/cadence/v9_0/spectre/v9_0_2/lpmos/models/cap/mosvc3i.scs
Reading file:  /home/saul/pkg/xfab/XKIT/xh018/cadence/v9_0/spectre/v9_0_2/lpmos/models/cap/mosvc3i_nmos.scs
Reading file:  /home/saul/pkg/xfab/XKIT/xh018/cadence/v9_0/spectre/v9_0_2/lpmos/models/cap/mosvc3i_m.scs
Reading file:  /home/saul/pkg/xfab/XKIT/xh018/cadence/v9_0/spectre/v9_0_2/lpmos/models/cap/cpod.scs
Reading file:  /home/saul/pkg/xfab/XKIT/xh018/cadence/v9_0/spectre/v9_0_2/lpmos/models/cap/cpod_i.scs
Reading file:  /home/saul/pkg/xfab/XKIT/xh018/cadence/v9_0/spectre/v9_0_2/lpmos/models/cap/cpodhv.scs
Reading file:  /home/saul/pkg/xfab/XKIT/xh018/cadence/v9_0/spectre/v9_0_2/lpmos/models/cap/cpodhv_i.scs
Reading file:  /home/saul/pkg/xfab/XKIT/xh018/cadence/v9_0/spectre/v9_0_2/lpmos/models/cap/cp1sub.scs
Reading file:  /home/saul/pkg/xfab/XKIT/xh018/cadence/v9_0/spectre/v9_0_2/lpmos/models/cap/cp1suba.scs
Reading file:  /home/saul/pkg/xfab/XKIT/xh018/cadence/v9_0/spectre/v9_0_2/lpmos/models/cap/cp1subp.scs
Reading file:  /home/saul/pkg/xfab/XKIT/xh018/cadence/v9_0/spectre/v9_0_2/lpmos/models/cap/tag_25v.scs
Reading file:  /home/saul/pkg/xfab/XKIT/xh018/cadence/v9_0/spectre/v9_0_2/lpmos/models/cap/tag_60v.scs
Reading file:  /home/saul/pkg/xfab/XKIT/xh018/cadence/v9_0/spectre/v9_0_2/lpmos/dio.scs
Reading file:  /home/saul/pkg/xfab/XKIT/xh018/cadence/v9_0/spectre/v9_0_2/lpmos/models/dio/tm_dio.scs
Reading file:  /home/saul/pkg/xfab/XKIT/xh018/cadence/v9_0/spectre/v9_0_2/lpmos/models/dio/dn.scs
Reading file:  /home/saul/pkg/xfab/XKIT/xh018/cadence/v9_0/spectre/v9_0_2/lpmos/models/dio/dp.scs
Reading file:  /home/saul/pkg/xfab/XKIT/xh018/cadence/v9_0/spectre/v9_0_2/lpmos/models/dio/dnw.scs
Reading file:  /home/saul/pkg/xfab/XKIT/xh018/cadence/v9_0/spectre/v9_0_2/lpmos/models/dio/dn3.scs
Reading file:  /home/saul/pkg/xfab/XKIT/xh018/cadence/v9_0/spectre/v9_0_2/lpmos/models/dio/dnn3.scs
Reading file:  /home/saul/pkg/xfab/XKIT/xh018/cadence/v9_0/spectre/v9_0_2/lpmos/models/dio/dp3.scs
Reading file:  /home/saul/pkg/xfab/XKIT/xh018/cadence/v9_0/spectre/v9_0_2/lpmos/models/dio/dnw3.scs
Reading file:  /home/saul/pkg/xfab/XKIT/xh018/cadence/v9_0/spectre/v9_0_2/lpmos/models/dio/ddnwmv.scs
Reading file:  /home/saul/pkg/xfab/XKIT/xh018/cadence/v9_0/spectre/v9_0_2/lpmos/models/dio/dpdnwmv.scs
Reading file:  /home/saul/pkg/xfab/XKIT/xh018/cadence/v9_0/spectre/v9_0_2/lpmos/models/dio/dipdnwmv.scs
Reading file:  /home/saul/pkg/xfab/XKIT/xh018/cadence/v9_0/spectre/v9_0_2/lpmos/models/dio/ddnw.scs
Reading file:  /home/saul/pkg/xfab/XKIT/xh018/cadence/v9_0/spectre/v9_0_2/lpmos/models/dio/dpdnw.scs
Reading file:  /home/saul/pkg/xfab/XKIT/xh018/cadence/v9_0/spectre/v9_0_2/lpmos/models/dio/dipdnw.scs
Reading file:  /home/saul/pkg/xfab/XKIT/xh018/cadence/v9_0/spectre/v9_0_2/lpmos/models/dio/dnhpw.scs
Reading file:  /home/saul/pkg/xfab/XKIT/xh018/cadence/v9_0/spectre/v9_0_2/lpmos/models/dio/dnhpwa.scs
Reading file:  /home/saul/pkg/xfab/XKIT/xh018/cadence/v9_0/spectre/v9_0_2/lpmos/models/dio/dphnw.scs
Reading file:  /home/saul/pkg/xfab/XKIT/xh018/cadence/v9_0/spectre/v9_0_2/lpmos/models/dio/dphnwa.scs
Reading file:  /home/saul/pkg/xfab/XKIT/xh018/cadence/v9_0/spectre/v9_0_2/lpmos/models/dio/dhpw.scs
Reading file:  /home/saul/pkg/xfab/XKIT/xh018/cadence/v9_0/spectre/v9_0_2/lpmos/models/dio/dhnw.scs
Reading file:  /home/saul/pkg/xfab/XKIT/xh018/cadence/v9_0/spectre/v9_0_2/lpmos/models/dio/dndf.scs
Reading file:  /home/saul/pkg/xfab/XKIT/xh018/cadence/v9_0/spectre/v9_0_2/lpmos/models/dio/dpdwhn.scs
Reading file:  /home/saul/pkg/xfab/XKIT/xh018/cadence/v9_0/spectre/v9_0_2/lpmos/models/dio/dwhn.scs
Reading file:  /home/saul/pkg/xfab/XKIT/xh018/cadence/v9_0/spectre/v9_0_2/lpmos/models/dio/dpwhn.scs
Reading file:  /home/saul/pkg/xfab/XKIT/xh018/cadence/v9_0/spectre/v9_0_2/lpmos/models/dio/dpndf.scs
Reading file:  /home/saul/pkg/xfab/XKIT/xh018/cadence/v9_0/spectre/v9_0_2/lpmos/models/dio/dpdddnw.scs
Reading file:  /home/saul/pkg/xfab/XKIT/xh018/cadence/v9_0/spectre/v9_0_2/lpmos/models/dio/ddpldnw.scs
Reading file:  /home/saul/pkg/xfab/XKIT/xh018/cadence/v9_0/spectre/v9_0_2/lpmos/models/dio/dn3dpl.scs
Reading file:  /home/saul/pkg/xfab/XKIT/xh018/cadence/v9_0/spectre/v9_0_2/lpmos/models/dio/dbn.scs
Reading file:  /home/saul/pkg/xfab/XKIT/xh018/cadence/v9_0/spectre/v9_0_2/lpmos/models/dio/dpol.scs
Reading file:  /home/saul/pkg/xfab/XKIT/xh018/cadence/v9_0/spectre/v9_0_2/lpmos/models/dio/dnpdd_scr.scs
Reading file:  /home/saul/pkg/xfab/XKIT/xh018/cadence/v9_0/spectre/v9_0_2/lpmos/models/dio/dpdd_scr.scs
Reading file:  /home/saul/pkg/xfab/XKIT/xh018/cadence/v9_0/spectre/v9_0_2/lpmos/models/dio/dsb.scs
Reading file:  /home/saul/pkg/xfab/XKIT/xh018/cadence/v9_0/spectre/v9_0_2/lpmos/models/dio/dsba.scs
Reading file:  /home/saul/pkg/xfab/XKIT/xh018/cadence/v9_0/spectre/v9_0_2/lpmos/models/dio/dsba_qp1.scs
Reading file:  /home/saul/pkg/xfab/XKIT/xh018/cadence/v9_0/spectre/v9_0_2/lpmos/models/dio/dnp20.scs
Reading file:  /home/saul/pkg/xfab/XKIT/xh018/cadence/v9_0/spectre/v9_0_2/lpmos/models/dio/dpp20.scs
Reading file:  /home/saul/pkg/xfab/XKIT/xh018/cadence/v9_0/spectre/v9_0_2/lpmos/models/dio/dn3sci.scs
Reading file:  /home/saul/pkg/xfab/XKIT/xh018/cadence/v9_0/spectre/v9_0_2/lpmos/models/dio/dscidnwmv.scs
Reading file:  /home/saul/pkg/xfab/XKIT/xh018/cadence/v9_0/spectre/v9_0_2/lpmos/mos.scs
Reading file:  /home/saul/pkg/xfab/XKIT/xh018/cadence/v9_0/spectre/v9_0_2/lpmos/models/mos/tm_mos.scs
Reading file:  /home/saul/pkg/xfab/XKIT/xh018/cadence/v9_0/spectre/v9_0_2/lpmos/models/mos/ne.scs
Reading file:  /home/saul/pkg/xfab/XKIT/xh018/cadence/v9_0/spectre/v9_0_2/lpmos/models/mos/nei.scs
Reading file:  /home/saul/pkg/xfab/XKIT/xh018/cadence/v9_0/spectre/v9_0_2/lpmos/models/mos/nei_6.scs
Reading file:  /home/saul/pkg/xfab/XKIT/xh018/cadence/v9_0/spectre/v9_0_2/lpmos/models/mos/nei_m_6.scs
Reading file:  /home/saul/pkg/xfab/XKIT/xh018/cadence/v9_0/spectre/v9_0_2/lpmos/models/mos/pe.scs
Reading file:  /home/saul/pkg/xfab/XKIT/xh018/cadence/v9_0/spectre/v9_0_2/lpmos/models/mos/pe_5.scs
Reading file:  /home/saul/pkg/xfab/XKIT/xh018/cadence/v9_0/spectre/v9_0_2/lpmos/models/mos/pei.scs
Reading file:  /home/saul/pkg/xfab/XKIT/xh018/cadence/v9_0/spectre/v9_0_2/lpmos/models/mos/pei_5.scs
Reading file:  /home/saul/pkg/xfab/XKIT/xh018/cadence/v9_0/spectre/v9_0_2/lpmos/models/mos/pei_m_5.scs
Reading file:  /home/saul/pkg/xfab/XKIT/xh018/cadence/v9_0/spectre/v9_0_2/lpmos/models/mos/nel.scs
Reading file:  /home/saul/pkg/xfab/XKIT/xh018/cadence/v9_0/spectre/v9_0_2/lpmos/models/mos/neli.scs
Reading file:  /home/saul/pkg/xfab/XKIT/xh018/cadence/v9_0/spectre/v9_0_2/lpmos/models/mos/neli_6.scs
Reading file:  /home/saul/pkg/xfab/XKIT/xh018/cadence/v9_0/spectre/v9_0_2/lpmos/models/mos/neli_m_6.scs
Reading file:  /home/saul/pkg/xfab/XKIT/xh018/cadence/v9_0/spectre/v9_0_2/lpmos/models/mos/pel.scs
Reading file:  /home/saul/pkg/xfab/XKIT/xh018/cadence/v9_0/spectre/v9_0_2/lpmos/models/mos/pel_5.scs
Reading file:  /home/saul/pkg/xfab/XKIT/xh018/cadence/v9_0/spectre/v9_0_2/lpmos/models/mos/peli.scs
Reading file:  /home/saul/pkg/xfab/XKIT/xh018/cadence/v9_0/spectre/v9_0_2/lpmos/models/mos/peli_5.scs
Reading file:  /home/saul/pkg/xfab/XKIT/xh018/cadence/v9_0/spectre/v9_0_2/lpmos/models/mos/peli_m_5.scs
Reading file:  /home/saul/pkg/xfab/XKIT/xh018/cadence/v9_0/spectre/v9_0_2/lpmos/models/mos/nn3.scs
Reading file:  /home/saul/pkg/xfab/XKIT/xh018/cadence/v9_0/spectre/v9_0_2/lpmos/models/mos/ne3.scs
Reading file:  /home/saul/pkg/xfab/XKIT/xh018/cadence/v9_0/spectre/v9_0_2/lpmos/models/mos/ne3i.scs
Reading file:  /home/saul/pkg/xfab/XKIT/xh018/cadence/v9_0/spectre/v9_0_2/lpmos/models/mos/ne3i_6.scs
Reading file:  /home/saul/pkg/xfab/XKIT/xh018/cadence/v9_0/spectre/v9_0_2/lpmos/models/mos/ne3i_m_6.scs
Reading file:  /home/saul/pkg/xfab/XKIT/xh018/cadence/v9_0/spectre/v9_0_2/lpmos/models/mos/pe3.scs
Reading file:  /home/saul/pkg/xfab/XKIT/xh018/cadence/v9_0/spectre/v9_0_2/lpmos/models/mos/pe3_5.scs
Reading file:  /home/saul/pkg/xfab/XKIT/xh018/cadence/v9_0/spectre/v9_0_2/lpmos/models/mos/pe3i.scs
Reading file:  /home/saul/pkg/xfab/XKIT/xh018/cadence/v9_0/spectre/v9_0_2/lpmos/models/mos/pe3i_5.scs
Reading file:  /home/saul/pkg/xfab/XKIT/xh018/cadence/v9_0/spectre/v9_0_2/lpmos/models/mos/pe3i_m_5.scs
Reading file:  /home/saul/pkg/xfab/XKIT/xh018/cadence/v9_0/spectre/v9_0_2/lpmos/models/mos/pe3ln.scs
Reading file:  /home/saul/pkg/xfab/XKIT/xh018/cadence/v9_0/spectre/v9_0_2/lpmos/models/mos/pe3ln_5.scs
Reading file:  /home/saul/pkg/xfab/XKIT/xh018/cadence/v9_0/spectre/v9_0_2/lpmos/models/mos/pe3lni.scs
Reading file:  /home/saul/pkg/xfab/XKIT/xh018/cadence/v9_0/spectre/v9_0_2/lpmos/models/mos/pe3lni_5.scs
Reading file:  /home/saul/pkg/xfab/XKIT/xh018/cadence/v9_0/spectre/v9_0_2/lpmos/models/mos/pe3lni_m_5.scs
Reading file:  /home/saul/pkg/xfab/XKIT/xh018/cadence/v9_0/spectre/v9_0_2/lpmos/models/mos/nd3.scs
Reading file:  /home/saul/pkg/xfab/XKIT/xh018/cadence/v9_0/spectre/v9_0_2/lpmos/models/mos/nd3_mos1.scs
Reading file:  /home/saul/pkg/xfab/XKIT/xh018/cadence/v9_0/spectre/v9_0_2/lpmos/models/mos/nd3_mos2.scs
Reading file:  /home/saul/pkg/xfab/XKIT/xh018/cadence/v9_0/spectre/v9_0_2/lpmos/models/mos/nd3i.scs
Reading file:  /home/saul/pkg/xfab/XKIT/xh018/cadence/v9_0/spectre/v9_0_2/lpmos/models/mos/nd3i_mos1.scs
Reading file:  /home/saul/pkg/xfab/XKIT/xh018/cadence/v9_0/spectre/v9_0_2/lpmos/models/mos/nd3i_mos2.scs
Reading file:  /home/saul/pkg/xfab/XKIT/xh018/cadence/v9_0/spectre/v9_0_2/lpmos/models/mos/nd3i_6.scs
Reading file:  /home/saul/pkg/xfab/XKIT/xh018/cadence/v9_0/spectre/v9_0_2/lpmos/models/mos/nd3i_m_6.scs
Reading file:  /home/saul/pkg/xfab/XKIT/xh018/cadence/v9_0/spectre/v9_0_2/lpmos/models/mos/nelna.scs
Reading file:  /home/saul/pkg/xfab/XKIT/xh018/cadence/v9_0/spectre/v9_0_2/lpmos/models/mos/nelnai.scs
Reading file:  /home/saul/pkg/xfab/XKIT/xh018/cadence/v9_0/spectre/v9_0_2/lpmos/models/mos/nelnai_6.scs
Reading file:  /home/saul/pkg/xfab/XKIT/xh018/cadence/v9_0/spectre/v9_0_2/lpmos/models/mos/nelnai_m_6.scs
Reading file:  /home/saul/pkg/xfab/XKIT/xh018/cadence/v9_0/spectre/v9_0_2/lpmos/models/mos/ne3lna.scs
Reading file:  /home/saul/pkg/xfab/XKIT/xh018/cadence/v9_0/spectre/v9_0_2/lpmos/models/mos/ne3lnai.scs
Reading file:  /home/saul/pkg/xfab/XKIT/xh018/cadence/v9_0/spectre/v9_0_2/lpmos/models/mos/ne3lnai_6.scs
Reading file:  /home/saul/pkg/xfab/XKIT/xh018/cadence/v9_0/spectre/v9_0_2/lpmos/models/mos/ne3lnai_m_6.scs
Reading file:  /home/saul/pkg/xfab/XKIT/xh018/cadence/v9_0/spectre/v9_0_2/lpmos/models/mos/pe3lna.scs
Reading file:  /home/saul/pkg/xfab/XKIT/xh018/cadence/v9_0/spectre/v9_0_2/lpmos/models/mos/pe3lna_5.scs
Reading file:  /home/saul/pkg/xfab/XKIT/xh018/cadence/v9_0/spectre/v9_0_2/lpmos/models/mos/pe3lnai.scs
Reading file:  /home/saul/pkg/xfab/XKIT/xh018/cadence/v9_0/spectre/v9_0_2/lpmos/models/mos/pe3lnai_5.scs
Reading file:  /home/saul/pkg/xfab/XKIT/xh018/cadence/v9_0/spectre/v9_0_2/lpmos/models/mos/pe3lnai_m_5.scs
Reading file:  /home/saul/pkg/xfab/XKIT/xh018/cadence/v9_0/spectre/v9_0_2/lpmos/models/mos/nmma.scs
Reading file:  /home/saul/pkg/xfab/XKIT/xh018/cadence/v9_0/spectre/v9_0_2/lpmos/models/mos/jf_nmma.scs
Reading file:  /home/saul/pkg/xfab/XKIT/xh018/cadence/v9_0/spectre/v9_0_2/lpmos/models/mos/nmma_bjt.scs
Reading file:  /home/saul/pkg/xfab/XKIT/xh018/cadence/v9_0/spectre/v9_0_2/lpmos/models/mos/pmma.scs
Reading file:  /home/saul/pkg/xfab/XKIT/xh018/cadence/v9_0/spectre/v9_0_2/lpmos/models/mos/jf_pmma.scs
Reading file:  /home/saul/pkg/xfab/XKIT/xh018/cadence/v9_0/spectre/v9_0_2/lpmos/models/mos/pmma_bjt.scs
Reading file:  /home/saul/pkg/xfab/XKIT/xh018/cadence/v9_0/spectre/v9_0_2/lpmos/models/mos/nedi.scs
Reading file:  /home/saul/pkg/xfab/XKIT/xh018/cadence/v9_0/spectre/v9_0_2/lpmos/models/mos/nedi_bjt.scs
Reading file:  /home/saul/pkg/xfab/XKIT/xh018/cadence/v9_0/spectre/v9_0_2/lpmos/models/mos/nedia.scs
Reading file:  /home/saul/pkg/xfab/XKIT/xh018/cadence/v9_0/spectre/v9_0_2/lpmos/models/mos/nedia_bjt.scs
Reading file:  /home/saul/pkg/xfab/XKIT/xh018/cadence/v9_0/spectre/v9_0_2/lpmos/models/mos/ped2.scs
Reading file:  /home/saul/pkg/xfab/XKIT/xh018/cadence/v9_0/spectre/v9_0_2/lpmos/models/mos/ped2_bjt.scs
Reading file:  /home/saul/pkg/xfab/XKIT/xh018/cadence/v9_0/spectre/v9_0_2/lpmos/models/mos/ped.scs
Reading file:  /home/saul/pkg/xfab/XKIT/xh018/cadence/v9_0/spectre/v9_0_2/lpmos/models/mos/ped_bjt.scs
Reading file:  /home/saul/pkg/xfab/XKIT/xh018/cadence/v9_0/spectre/v9_0_2/lpmos/models/mos/nhv.scs
Reading file:  /home/saul/pkg/xfab/XKIT/xh018/cadence/v9_0/spectre/v9_0_2/lpmos/models/mos/nhv_mos2.scs
Reading file:  /home/saul/pkg/xfab/XKIT/xh018/cadence/v9_0/spectre/v9_0_2/lpmos/models/mos/nhv_bjt.scs
Reading file:  /home/saul/pkg/xfab/XKIT/xh018/cadence/v9_0/spectre/v9_0_2/lpmos/models/mos/nhhv.scs
Reading file:  /home/saul/pkg/xfab/XKIT/xh018/cadence/v9_0/spectre/v9_0_2/lpmos/models/mos/nhhv_mos2.scs
Reading file:  /home/saul/pkg/xfab/XKIT/xh018/cadence/v9_0/spectre/v9_0_2/lpmos/models/mos/nhhv_bjt.scs
Reading file:  /home/saul/pkg/xfab/XKIT/xh018/cadence/v9_0/spectre/v9_0_2/lpmos/models/mos/nmmc.scs
Reading file:  /home/saul/pkg/xfab/XKIT/xh018/cadence/v9_0/spectre/v9_0_2/lpmos/models/mos/nmmc_mos2.scs
Reading file:  /home/saul/pkg/xfab/XKIT/xh018/cadence/v9_0/spectre/v9_0_2/lpmos/models/mos/nmmc_bjt.scs
Reading file:  /home/saul/pkg/xfab/XKIT/xh018/cadence/v9_0/spectre/v9_0_2/lpmos/models/mos/nmmd.scs
Reading file:  /home/saul/pkg/xfab/XKIT/xh018/cadence/v9_0/spectre/v9_0_2/lpmos/models/mos/nmmd_mos2.scs
Reading file:  /home/saul/pkg/xfab/XKIT/xh018/cadence/v9_0/spectre/v9_0_2/lpmos/models/mos/nmmd_bjt.scs
Reading file:  /home/saul/pkg/xfab/XKIT/xh018/cadence/v9_0/spectre/v9_0_2/lpmos/models/mos/nmc.scs
Reading file:  /home/saul/pkg/xfab/XKIT/xh018/cadence/v9_0/spectre/v9_0_2/lpmos/models/mos/nmc_mos2.scs
Reading file:  /home/saul/pkg/xfab/XKIT/xh018/cadence/v9_0/spectre/v9_0_2/lpmos/models/mos/nmc_bjt.scs
Reading file:  /home/saul/pkg/xfab/XKIT/xh018/cadence/v9_0/spectre/v9_0_2/lpmos/models/mos/nma.scs
Reading file:  /home/saul/pkg/xfab/XKIT/xh018/cadence/v9_0/spectre/v9_0_2/lpmos/models/mos/nma_bjt.scs
Reading file:  /home/saul/pkg/xfab/XKIT/xh018/cadence/v9_0/spectre/v9_0_2/lpmos/models/mos/phv.scs
Reading file:  /home/saul/pkg/xfab/XKIT/xh018/cadence/v9_0/spectre/v9_0_2/lpmos/models/mos/phv_mos2.scs
Reading file:  /home/saul/pkg/xfab/XKIT/xh018/cadence/v9_0/spectre/v9_0_2/lpmos/models/mos/phv_bjt.scs
Reading file:  /home/saul/pkg/xfab/XKIT/xh018/cadence/v9_0/spectre/v9_0_2/lpmos/models/mos/phhv.scs
Reading file:  /home/saul/pkg/xfab/XKIT/xh018/cadence/v9_0/spectre/v9_0_2/lpmos/models/mos/phhv_mos2.scs
Reading file:  /home/saul/pkg/xfab/XKIT/xh018/cadence/v9_0/spectre/v9_0_2/lpmos/models/mos/phhv_bjt.scs
Reading file:  /home/saul/pkg/xfab/XKIT/xh018/cadence/v9_0/spectre/v9_0_2/lpmos/models/mos/pmc.scs
Reading file:  /home/saul/pkg/xfab/XKIT/xh018/cadence/v9_0/spectre/v9_0_2/lpmos/models/mos/pmc_mos2.scs
Reading file:  /home/saul/pkg/xfab/XKIT/xh018/cadence/v9_0/spectre/v9_0_2/lpmos/models/mos/pmc_bjt.scs
Reading file:  /home/saul/pkg/xfab/XKIT/xh018/cadence/v9_0/spectre/v9_0_2/lpmos/models/mos/pmmc.scs
Reading file:  /home/saul/pkg/xfab/XKIT/xh018/cadence/v9_0/spectre/v9_0_2/lpmos/models/mos/pmmc_mos2.scs
Reading file:  /home/saul/pkg/xfab/XKIT/xh018/cadence/v9_0/spectre/v9_0_2/lpmos/models/mos/pmmc_bjt.scs
Reading file:  /home/saul/pkg/xfab/XKIT/xh018/cadence/v9_0/spectre/v9_0_2/lpmos/models/mos/pma.scs
Reading file:  /home/saul/pkg/xfab/XKIT/xh018/cadence/v9_0/spectre/v9_0_2/lpmos/models/mos/pma_bjt.scs
Reading file:  /home/saul/pkg/xfab/XKIT/xh018/cadence/v9_0/spectre/v9_0_2/lpmos/models/mos/pmb.scs
Reading file:  /home/saul/pkg/xfab/XKIT/xh018/cadence/v9_0/spectre/v9_0_2/lpmos/models/mos/nesvt.scs
Reading file:  /home/saul/pkg/xfab/XKIT/xh018/cadence/v9_0/spectre/v9_0_2/lpmos/models/mos/nesvti.scs
Reading file:  /home/saul/pkg/xfab/XKIT/xh018/cadence/v9_0/spectre/v9_0_2/lpmos/models/mos/nesvti_6.scs
Reading file:  /home/saul/pkg/xfab/XKIT/xh018/cadence/v9_0/spectre/v9_0_2/lpmos/models/mos/nesvti_m_6.scs
Reading file:  /home/saul/pkg/xfab/XKIT/xh018/cadence/v9_0/spectre/v9_0_2/lpmos/models/mos/pesvt.scs
Reading file:  /home/saul/pkg/xfab/XKIT/xh018/cadence/v9_0/spectre/v9_0_2/lpmos/models/mos/pesvt_5.scs
Reading file:  /home/saul/pkg/xfab/XKIT/xh018/cadence/v9_0/spectre/v9_0_2/lpmos/models/mos/pesvti.scs
Reading file:  /home/saul/pkg/xfab/XKIT/xh018/cadence/v9_0/spectre/v9_0_2/lpmos/models/mos/pesvti_5.scs
Reading file:  /home/saul/pkg/xfab/XKIT/xh018/cadence/v9_0/spectre/v9_0_2/lpmos/models/mos/pesvti_m_5.scs
Reading file:  /home/saul/pkg/xfab/XKIT/xh018/cadence/v9_0/spectre/v9_0_2/lpmos/models/mos/nhvd.scs
Reading file:  /home/saul/pkg/xfab/XKIT/xh018/cadence/v9_0/spectre/v9_0_2/lpmos/models/mos/nhvd_bjt.scs
Reading file:  /home/saul/pkg/xfab/XKIT/xh018/cadence/v9_0/spectre/v9_0_2/lpmos/models/mos/nhhvd.scs
Reading file:  /home/saul/pkg/xfab/XKIT/xh018/cadence/v9_0/spectre/v9_0_2/lpmos/models/mos/nhhvd_bjt.scs
Reading file:  /home/saul/pkg/xfab/XKIT/xh018/cadence/v9_0/spectre/v9_0_2/lpmos/photo.scs
Reading file:  /home/saul/pkg/xfab/XKIT/xh018/cadence/v9_0/spectre/v9_0_2/lpmos/models/photo/tm_pho.scs
Reading file:  /home/saul/pkg/xfab/XKIT/xh018/cadence/v9_0/spectre/v9_0_2/lpmos/models/photo/dphoa.scs
Reading file:  /home/saul/pkg/xfab/XKIT/xh018/cadence/v9_0/spectre/v9_0_2/lpmos/models/photo/dpho.va
Reading link:  /pkg/cadence/installs/SPECTRE231/tools.lnx86/spectre/etc/ahdl/constants.h
Reading file:  /home/saul/cadence/installs/SPECTRE231/tools.lnx86/spectre/etc/ahdl/constants.vams
Reading link:  /pkg/cadence/installs/SPECTRE231/tools.lnx86/spectre/etc/ahdl/discipline.h
Reading file:  /home/saul/cadence/installs/SPECTRE231/tools.lnx86/spectre/etc/ahdl/disciplines.vams
Reading file:  /home/saul/pkg/xfab/XKIT/xh018/cadence/v9_0/spectre/v9_0_2/lpmos/models/photo/dphob.scs
Reading file:  /home/saul/pkg/xfab/XKIT/xh018/cadence/v9_0/spectre/v9_0_2/lpmos/models/photo/dphoc.scs
Reading file:  /home/saul/pkg/xfab/XKIT/xh018/cadence/v9_0/spectre/v9_0_2/lpmos/models/photo/iphoto_uv.va
Reading file:  /home/saul/pkg/xfab/XKIT/xh018/cadence/v9_0/spectre/v9_0_2/lpmos/models/photo/dphoc_cat.scs
Reading file:  /home/saul/pkg/xfab/XKIT/xh018/cadence/v9_0/spectre/v9_0_2/lpmos/models/photo/dphoc0.scs
Reading file:  /home/saul/pkg/xfab/XKIT/xh018/cadence/v9_0/spectre/v9_0_2/lpmos/models/photo/dphoc0_cat.scs
Reading file:  /home/saul/pkg/xfab/XKIT/xh018/cadence/v9_0/spectre/v9_0_2/lpmos/models/photo/dphocfp.scs
Reading file:  /home/saul/pkg/xfab/XKIT/xh018/cadence/v9_0/spectre/v9_0_2/lpmos/models/photo/dphocfp_cat.scs
Reading file:  /home/saul/pkg/xfab/XKIT/xh018/cadence/v9_0/spectre/v9_0_2/lpmos/models/photo/dphod.scs
Reading file:  /home/saul/pkg/xfab/XKIT/xh018/cadence/v9_0/spectre/v9_0_2/lpmos/models/photo/dphod_an1.scs
Reading file:  /home/saul/pkg/xfab/XKIT/xh018/cadence/v9_0/spectre/v9_0_2/lpmos/models/photo/dphod_an2.scs
Reading file:  /home/saul/pkg/xfab/XKIT/xh018/cadence/v9_0/spectre/v9_0_2/lpmos/models/photo/dphod0.scs
Reading file:  /home/saul/pkg/xfab/XKIT/xh018/cadence/v9_0/spectre/v9_0_2/lpmos/models/photo/dphod0_an1.scs
Reading file:  /home/saul/pkg/xfab/XKIT/xh018/cadence/v9_0/spectre/v9_0_2/lpmos/models/photo/dphod0_an2.scs
Reading file:  /home/saul/pkg/xfab/XKIT/xh018/cadence/v9_0/spectre/v9_0_2/lpmos/models/photo/dphodfp.scs
Reading file:  /home/saul/pkg/xfab/XKIT/xh018/cadence/v9_0/spectre/v9_0_2/lpmos/models/photo/dphodfp_an1.scs
Reading file:  /home/saul/pkg/xfab/XKIT/xh018/cadence/v9_0/spectre/v9_0_2/lpmos/models/photo/dphodfp_an2.scs
Reading file:  /home/saul/pkg/xfab/XKIT/xh018/cadence/v9_0/spectre/v9_0_2/lpmos/models/photo/dspada0.scs
Reading file:  /home/saul/pkg/xfab/XKIT/xh018/cadence/v9_0/spectre/v9_0_2/lpmos/models/photo/ispad.va
Reading file:  /home/saul/pkg/xfab/XKIT/xh018/cadence/v9_0/spectre/v9_0_2/lpmos/models/photo/dapb.scs
Reading file:  /home/saul/pkg/xfab/XKIT/xh018/cadence/v9_0/spectre/v9_0_2/lpmos/models/photo/iphoto_apd_trig.va
Reading file:  /home/saul/pkg/xfab/XKIT/xh018/cadence/v9_0/spectre/v9_0_2/lpmos/models/photo/dapb_jun.scs
Reading file:  /home/saul/pkg/xfab/XKIT/xh018/cadence/v9_0/spectre/v9_0_2/lpmos/models/photo/dapb_trig.scs
Reading file:  /home/saul/pkg/xfab/XKIT/xh018/cadence/v9_0/spectre/v9_0_2/lpmos/models/photo/dapb0.scs
Reading file:  /home/saul/pkg/xfab/XKIT/xh018/cadence/v9_0/spectre/v9_0_2/lpmos/models/photo/dapb0_jun.scs
Reading file:  /home/saul/pkg/xfab/XKIT/xh018/cadence/v9_0/spectre/v9_0_2/lpmos/models/photo/dspb.scs
Reading file:  /home/saul/pkg/xfab/XKIT/xh018/cadence/v9_0/spectre/v9_0_2/lpmos/models/photo/ispad_trig.va
Reading file:  /home/saul/pkg/xfab/XKIT/xh018/cadence/v9_0/spectre/v9_0_2/lpmos/models/photo/dspb_jun.scs
Reading file:  /home/saul/pkg/xfab/XKIT/xh018/cadence/v9_0/spectre/v9_0_2/lpmos/models/photo/dspb_trig.scs
Reading file:  /home/saul/pkg/xfab/XKIT/xh018/cadence/v9_0/spectre/v9_0_2/lpmos/models/photo/dspb0.scs
Reading file:  /home/saul/pkg/xfab/XKIT/xh018/cadence/v9_0/spectre/v9_0_2/lpmos/models/photo/dspb0_jun.scs
Reading file:  /home/saul/pkg/xfab/XKIT/xh018/cadence/v9_0/spectre/v9_0_2/lpmos/models/photo/dspbfep.scs
Reading file:  /home/saul/pkg/xfab/XKIT/xh018/cadence/v9_0/spectre/v9_0_2/lpmos/models/photo/dapda.scs
Reading file:  /home/saul/pkg/xfab/XKIT/xh018/cadence/v9_0/spectre/v9_0_2/lpmos/models/photo/iphoto_apd.va
Reading file:  /home/saul/pkg/xfab/XKIT/xh018/cadence/v9_0/spectre/v9_0_2/lpmos/models/photo/dapda_cat.scs
Reading file:  /home/saul/pkg/xfab/XKIT/xh018/cadence/v9_0/spectre/v9_0_2/lpmos/models/photo/dapda0.scs
Reading file:  /home/saul/pkg/xfab/XKIT/xh018/cadence/v9_0/spectre/v9_0_2/lpmos/models/photo/dspada.scs
Reading file:  /home/saul/pkg/xfab/XKIT/xh018/cadence/v9_0/spectre/v9_0_2/lpmos/models/photo/dspada_cat.scs
Reading file:  /home/saul/pkg/xfab/XKIT/xh018/cadence/v9_0/spectre/v9_0_2/lpmos/res.scs
Reading file:  /home/saul/pkg/xfab/XKIT/xh018/cadence/v9_0/spectre/v9_0_2/lpmos/models/res/tm_res.scs
Reading file:  /home/saul/pkg/xfab/XKIT/xh018/cadence/v9_0/spectre/v9_0_2/lpmos/models/res/rdn.scs
Reading file:  /home/saul/pkg/xfab/XKIT/xh018/cadence/v9_0/spectre/v9_0_2/lpmos/models/res/rdn_esd.scs
Reading file:  /home/saul/pkg/xfab/XKIT/xh018/cadence/v9_0/spectre/v9_0_2/lpmos/models/res/rdp.scs
Reading file:  /home/saul/pkg/xfab/XKIT/xh018/cadence/v9_0/spectre/v9_0_2/lpmos/models/res/rdp_io.scs
Reading file:  /home/saul/pkg/xfab/XKIT/xh018/cadence/v9_0/spectre/v9_0_2/lpmos/models/res/rdp_esd.scs
Reading file:  /home/saul/pkg/xfab/XKIT/xh018/cadence/v9_0/spectre/v9_0_2/lpmos/models/res/rnw.scs
Reading file:  /home/saul/pkg/xfab/XKIT/xh018/cadence/v9_0/spectre/v9_0_2/lpmos/models/res/rnw_scr.scs
Reading file:  /home/saul/pkg/xfab/XKIT/xh018/cadence/v9_0/spectre/v9_0_2/lpmos/models/res/rdn3.scs
Reading file:  /home/saul/pkg/xfab/XKIT/xh018/cadence/v9_0/spectre/v9_0_2/lpmos/models/res/rdp3.scs
Reading file:  /home/saul/pkg/xfab/XKIT/xh018/cadence/v9_0/spectre/v9_0_2/lpmos/models/res/rnw3.scs
Reading file:  /home/saul/pkg/xfab/XKIT/xh018/cadence/v9_0/spectre/v9_0_2/lpmos/models/res/rnw3_scr.scs
Reading file:  /home/saul/pkg/xfab/XKIT/xh018/cadence/v9_0/spectre/v9_0_2/lpmos/models/res/rdnwmv.scs
Reading file:  /home/saul/pkg/xfab/XKIT/xh018/cadence/v9_0/spectre/v9_0_2/lpmos/models/res/rnp1.scs
Reading file:  /home/saul/pkg/xfab/XKIT/xh018/cadence/v9_0/spectre/v9_0_2/lpmos/models/res/rnp1_3.scs
Reading file:  /home/saul/pkg/xfab/XKIT/xh018/cadence/v9_0/spectre/v9_0_2/lpmos/models/res/rpp1.scs
Reading file:  /home/saul/pkg/xfab/XKIT/xh018/cadence/v9_0/spectre/v9_0_2/lpmos/models/res/rpp1_3.scs
Reading file:  /home/saul/pkg/xfab/XKIT/xh018/cadence/v9_0/spectre/v9_0_2/lpmos/models/res/rpp1s.scs
Reading file:  /home/saul/pkg/xfab/XKIT/xh018/cadence/v9_0/spectre/v9_0_2/lpmos/models/res/rpp1s_3.scs
Reading file:  /home/saul/pkg/xfab/XKIT/xh018/cadence/v9_0/spectre/v9_0_2/lpmos/models/res/rnp1h.scs
Reading file:  /home/saul/pkg/xfab/XKIT/xh018/cadence/v9_0/spectre/v9_0_2/lpmos/models/res/rnp1h_3.scs
Reading file:  /home/saul/pkg/xfab/XKIT/xh018/cadence/v9_0/spectre/v9_0_2/lpmos/models/res/rpp1k1.scs
Reading file:  /home/saul/pkg/xfab/XKIT/xh018/cadence/v9_0/spectre/v9_0_2/lpmos/models/res/rpp1k1_3.scs
Reading file:  /home/saul/pkg/xfab/XKIT/xh018/cadence/v9_0/spectre/v9_0_2/lpmos/models/res/rctdn.scs
Reading file:  /home/saul/pkg/xfab/XKIT/xh018/cadence/v9_0/spectre/v9_0_2/lpmos/models/res/rctdp.scs
Reading file:  /home/saul/pkg/xfab/XKIT/xh018/cadence/v9_0/spectre/v9_0_2/lpmos/models/res/rctp1.scs
Reading file:  /home/saul/pkg/xfab/XKIT/xh018/cadence/v9_0/spectre/v9_0_2/lpmos/models/res/rsildn.scs
Reading file:  /home/saul/pkg/xfab/XKIT/xh018/cadence/v9_0/spectre/v9_0_2/lpmos/models/res/rsildp.scs
Reading file:  /home/saul/pkg/xfab/XKIT/xh018/cadence/v9_0/spectre/v9_0_2/lpmos/models/res/rsilnp1.scs
Reading file:  /home/saul/pkg/xfab/XKIT/xh018/cadence/v9_0/spectre/v9_0_2/lpmos/models/res/rsilpp1.scs
Reading file:  /home/saul/pkg/xfab/XKIT/xh018/cadence/v9_0/spectre/v9_0_2/lpmos/models/res/rsbdn.scs
Reading file:  /home/saul/pkg/xfab/XKIT/xh018/cadence/v9_0/spectre/v9_0_2/lpmos/models/res/rsbdp.scs
Reading file:  /home/saul/pkg/xfab/XKIT/xh018/cadence/v9_0/spectre/v9_0_2/lpmos/models/res/rsbdn3.scs
Reading file:  /home/saul/pkg/xfab/XKIT/xh018/cadence/v9_0/spectre/v9_0_2/lpmos/models/res/rsbdp3.scs
Reading file:  /home/saul/pkg/xfab/XKIT/xh018/cadence/v9_0/spectre/v9_0_2/lpmos/models/res/rsbnp1.scs
Reading file:  /home/saul/pkg/xfab/XKIT/xh018/cadence/v9_0/spectre/v9_0_2/lpmos/models/res/rsbpp1.scs
Reading file:  /home/saul/pkg/xfab/XKIT/xh018/cadence/v9_0/spectre/v9_0_2/lpmos/models/res/rsbpp1k1.scs
Reading file:  /home/saul/pkg/xfab/XKIT/xh018/cadence/v9_0/spectre/v9_0_2/lpmos/models/res/rm1.scs
Reading file:  /home/saul/pkg/xfab/XKIT/xh018/cadence/v9_0/spectre/v9_0_2/lpmos/models/res/rm2.scs
Reading file:  /home/saul/pkg/xfab/XKIT/xh018/cadence/v9_0/spectre/v9_0_2/lpmos/models/res/rm3.scs
Reading file:  /home/saul/pkg/xfab/XKIT/xh018/cadence/v9_0/spectre/v9_0_2/lpmos/models/res/rm4.scs
Reading file:  /home/saul/pkg/xfab/XKIT/xh018/cadence/v9_0/spectre/v9_0_2/lpmos/models/res/rm5.scs
Reading file:  /home/saul/pkg/xfab/XKIT/xh018/cadence/v9_0/spectre/v9_0_2/lpmos/models/res/rmtp.scs
Reading file:  /home/saul/pkg/xfab/XKIT/xh018/cadence/v9_0/spectre/v9_0_2/lpmos/models/res/rmtpl.scs
Reading file:  /home/saul/pkg/xfab/XKIT/xh018/cadence/v9_0/spectre/v9_0_2/lpmos/models/res/pfuse.scs
Reading file:  /home/saul/pkg/xfab/XKIT/xh018/cadence/v9_0/spectre/v9_0_2/lpmos/models/res/s_res.scs
Time for NDB Parsing: CPU = 163.718 ms, elapsed = 661.717 ms.
Time accumulated: CPU = 210.016 ms, elapsed = 661.719 ms.
Peak resident memory used = 120 Mbytes.

Time for Elaboration: CPU = 12.278 ms, elapsed = 12.2409 ms.
Time accumulated: CPU = 222.374 ms, elapsed = 674.04 ms.
Peak resident memory used = 127 Mbytes.


Notice from spectre during hierarchy flattening.
    The value 'psf' specified for the 'checklimitdest' option will no longer be supported in future releases. Use 'spectre -h' to see other recommended values for the 'checklimitdest' option.


Time for EDB Visiting: CPU = 487 us, elapsed = 486.851 us.
Time accumulated: CPU = 222.941 ms, elapsed = 674.607 ms.
Peak resident memory used = 128 Mbytes.


Error found by spectre during initial setup.
[...]
Reading file:  /home/saul/pkg/xfab/XKIT/xh018/cadence/v9_0/spectre/v9_0_2/lpmos/models/mos/pe3lni_m_5.scs
Reading file:  /home/saul/pkg/xfab/XKIT/xh018/cadence/v9_0/spectre/v9_0_2/lpmos/models/mos/nd3.scs
Reading file:  /home/saul/pkg/xfab/XKIT/xh018/cadence/v9_0/spectre/v9_0_2/lpmos/models/mos/nd3_mos1.scs
Reading file:  /home/saul/pkg/xfab/XKIT/xh018/cadence/v9_0/spectre/v9_0_2/lpmos/models/mos/nd3_mos2.scs
Reading file:  /home/saul/pkg/xfab/XKIT/xh018/cadence/v9_0/spectre/v9_0_2/lpmos/models/mos/nd3i.scs
Reading file:  /home/saul/pkg/xfab/XKIT/xh018/cadence/v9_0/spectre/v9_0_2/lpmos/models/mos/nd3i_mos1.scs
Reading file:  /home/saul/pkg/xfab/XKIT/xh018/cadence/v9_0/spectre/v9_0_2/lpmos/models/mos/nd3i_mos2.scs
Reading file:  /home/saul/pkg/xfab/XKIT/xh018/cadence/v9_0/spectre/v9_0_2/lpmos/models/mos/nd3i_6.scs
Reading file:  /home/saul/pkg/xfab/XKIT/xh018/cadence/v9_0/spectre/v9_0_2/lpmos/models/mos/nd3i_m_6.scs
Reading file:  /home/saul/pkg/xfab/XKIT/xh018/cadence/v9_0/spectre/v9_0_2/lpmos/models/mos/nelna.scs
Reading file:  /home/saul/pkg/xfab/XKIT/xh018/cadence/v9_0/spectre/v9_0_2/lpmos/models/mos/nelnai.scs
Reading file:  /home/saul/pkg/xfab/XKIT/xh018/cadence/v9_0/spectre/v9_0_2/lpmos/models/mos/nelnai_6.scs
Reading file:  /home/saul/pkg/xfab/XKIT/xh018/cadence/v9_0/spectre/v9_0_2/lpmos/models/mos/nelnai_m_6.scs
Reading file:  /home/saul/pkg/xfab/XKIT/xh018/cadence/v9_0/spectre/v9_0_2/lpmos/models/mos/ne3lna.scs
Reading file:  /home/saul/pkg/xfab/XKIT/xh018/cadence/v9_0/spectre/v9_0_2/lpmos/models/mos/ne3lnai.scs
Reading file:  /home/saul/pkg/xfab/XKIT/xh018/cadence/v9_0/spectre/v9_0_2/lpmos/models/mos/ne3lnai_6.scs
Reading file:  /home/saul/pkg/xfab/XKIT/xh018/cadence/v9_0/spectre/v9_0_2/lpmos/models/mos/ne3lnai_m_6.scs
Reading file:  /home/saul/pkg/xfab/XKIT/xh018/cadence/v9_0/spectre/v9_0_2/lpmos/models/mos/pe3lna.scs
Reading file:  /home/saul/pkg/xfab/XKIT/xh018/cadence/v9_0/spectre/v9_0_2/lpmos/models/mos/pe3lna_5.scs
Reading file:  /home/saul/pkg/xfab/XKIT/xh018/cadence/v9_0/spectre/v9_0_2/lpmos/models/mos/pe3lnai.scs
Reading file:  /home/saul/pkg/xfab/XKIT/xh018/cadence/v9_0/spectre/v9_0_2/lpmos/models/mos/pe3lnai_5.scs
Reading file:  /home/saul/pkg/xfab/XKIT/xh018/cadence/v9_0/spectre/v9_0_2/lpmos/models/mos/pe3lnai_m_5.scs
Reading file:  /home/saul/pkg/xfab/XKIT/xh018/cadence/v9_0/spectre/v9_0_2/lpmos/models/mos/nmma.scs
Reading file:  /home/saul/pkg/xfab/XKIT/xh018/cadence/v9_0/spectre/v9_0_2/lpmos/models/mos/jf_nmma.scs
Reading file:  /home/saul/pkg/xfab/XKIT/xh018/cadence/v9_0/spectre/v9_0_2/lpmos/models/mos/nmma_bjt.scs
Reading file:  /home/saul/pkg/xfab/XKIT/xh018/cadence/v9_0/spectre/v9_0_2/lpmos/models/mos/pmma.scs
Reading file:  /home/saul/pkg/xfab/XKIT/xh018/cadence/v9_0/spectre/v9_0_2/lpmos/models/mos/jf_pmma.scs
Reading file:  /home/saul/pkg/xfab/XKIT/xh018/cadence/v9_0/spectre/v9_0_2/lpmos/models/mos/pmma_bjt.scs
Reading file:  /home/saul/pkg/xfab/XKIT/xh018/cadence/v9_0/spectre/v9_0_2/lpmos/models/mos/nedi.scs
Reading file:  /home/saul/pkg/xfab/XKIT/xh018/cadence/v9_0/spectre/v9_0_2/lpmos/models/mos/nedi_bjt.scs
Reading file:  /home/saul/pkg/xfab/XKIT/xh018/cadence/v9_0/spectre/v9_0_2/lpmos/models/mos/nedia.scs
Reading file:  /home/saul/pkg/xfab/XKIT/xh018/cadence/v9_0/spectre/v9_0_2/lpmos/models/mos/nedia_bjt.scs
Reading file:  /home/saul/pkg/xfab/XKIT/xh018/cadence/v9_0/spectre/v9_0_2/lpmos/models/mos/ped2.scs
Reading file:  /home/saul/pkg/xfab/XKIT/xh018/cadence/v9_0/spectre/v9_0_2/lpmos/models/mos/ped2_bjt.scs
Reading file:  /home/saul/pkg/xfab/XKIT/xh018/cadence/v9_0/spectre/v9_0_2/lpmos/models/mos/ped.scs
Reading file:  /home/saul/pkg/xfab/XKIT/xh018/cadence/v9_0/spectre/v9_0_2/lpmos/models/mos/ped_bjt.scs
Reading file:  /home/saul/pkg/xfab/XKIT/xh018/cadence/v9_0/spectre/v9_0_2/lpmos/models/mos/nhv.scs
Reading file:  /home/saul/pkg/xfab/XKIT/xh018/cadence/v9_0/spectre/v9_0_2/lpmos/models/mos/nhv_mos2.scs
Reading file:  /home/saul/pkg/xfab/XKIT/xh018/cadence/v9_0/spectre/v9_0_2/lpmos/models/mos/nhv_bjt.scs
Reading file:  /home/saul/pkg/xfab/XKIT/xh018/cadence/v9_0/spectre/v9_0_2/lpmos/models/mos/nhhv.scs
Reading file:  /home/saul/pkg/xfab/XKIT/xh018/cadence/v9_0/spectre/v9_0_2/lpmos/models/mos/nhhv_mos2.scs
Reading file:  /home/saul/pkg/xfab/XKIT/xh018/cadence/v9_0/spectre/v9_0_2/lpmos/models/mos/nhhv_bjt.scs
Reading file:  /home/saul/pkg/xfab/XKIT/xh018/cadence/v9_0/spectre/v9_0_2/lpmos/models/mos/nmmc.scs
Reading file:  /home/saul/pkg/xfab/XKIT/xh018/cadence/v9_0/spectre/v9_0_2/lpmos/models/mos/nmmc_mos2.scs
Reading file:  /home/saul/pkg/xfab/XKIT/xh018/cadence/v9_0/spectre/v9_0_2/lpmos/models/mos/nmmc_bjt.scs
Reading file:  /home/saul/pkg/xfab/XKIT/xh018/cadence/v9_0/spectre/v9_0_2/lpmos/models/mos/nmmd.scs
Reading file:  /home/saul/pkg/xfab/XKIT/xh018/cadence/v9_0/spectre/v9_0_2/lpmos/models/mos/nmmd_mos2.scs
Reading file:  /home/saul/pkg/xfab/XKIT/xh018/cadence/v9_0/spectre/v9_0_2/lpmos/models/mos/nmmd_bjt.scs
Reading file:  /home/saul/pkg/xfab/XKIT/xh018/cadence/v9_0/spectre/v9_0_2/lpmos/models/mos/nmc.scs
Reading file:  /home/saul/pkg/xfab/XKIT/xh018/cadence/v9_0/spectre/v9_0_2/lpmos/models/mos/nmc_mos2.scs
Reading file:  /home/saul/pkg/xfab/XKIT/xh018/cadence/v9_0/spectre/v9_0_2/lpmos/models/mos/nmc_bjt.scs
Reading file:  /home/saul/pkg/xfab/XKIT/xh018/cadence/v9_0/spectre/v9_0_2/lpmos/models/mos/nma.scs
Reading file:  /home/saul/pkg/xfab/XKIT/xh018/cadence/v9_0/spectre/v9_0_2/lpmos/models/mos/nma_bjt.scs
Reading file:  /home/saul/pkg/xfab/XKIT/xh018/cadence/v9_0/spectre/v9_0_2/lpmos/models/mos/phv.scs
Reading file:  /home/saul/pkg/xfab/XKIT/xh018/cadence/v9_0/spectre/v9_0_2/lpmos/models/mos/phv_mos2.scs
Reading file:  /home/saul/pkg/xfab/XKIT/xh018/cadence/v9_0/spectre/v9_0_2/lpmos/models/mos/phv_bjt.scs
Reading file:  /home/saul/pkg/xfab/XKIT/xh018/cadence/v9_0/spectre/v9_0_2/lpmos/models/mos/phhv.scs
Reading file:  /home/saul/pkg/xfab/XKIT/xh018/cadence/v9_0/spectre/v9_0_2/lpmos/models/mos/phhv_mos2.scs
Reading file:  /home/saul/pkg/xfab/XKIT/xh018/cadence/v9_0/spectre/v9_0_2/lpmos/models/mos/phhv_bjt.scs
Reading file:  /home/saul/pkg/xfab/XKIT/xh018/cadence/v9_0/spectre/v9_0_2/lpmos/models/mos/pmc.scs
Reading file:  /home/saul/pkg/xfab/XKIT/xh018/cadence/v9_0/spectre/v9_0_2/lpmos/models/mos/pmc_mos2.scs
Reading file:  /home/saul/pkg/xfab/XKIT/xh018/cadence/v9_0/spectre/v9_0_2/lpmos/models/mos/pmc_bjt.scs
Reading file:  /home/saul/pkg/xfab/XKIT/xh018/cadence/v9_0/spectre/v9_0_2/lpmos/models/mos/pmmc.scs
Reading file:  /home/saul/pkg/xfab/XKIT/xh018/cadence/v9_0/spectre/v9_0_2/lpmos/models/mos/pmmc_mos2.scs
Reading file:  /home/saul/pkg/xfab/XKIT/xh018/cadence/v9_0/spectre/v9_0_2/lpmos/models/mos/pmmc_bjt.scs
Reading file:  /home/saul/pkg/xfab/XKIT/xh018/cadence/v9_0/spectre/v9_0_2/lpmos/models/mos/pma.scs
Reading file:  /home/saul/pkg/xfab/XKIT/xh018/cadence/v9_0/spectre/v9_0_2/lpmos/models/mos/pma_bjt.scs
Reading file:  /home/saul/pkg/xfab/XKIT/xh018/cadence/v9_0/spectre/v9_0_2/lpmos/models/mos/pmb.scs
Reading file:  /home/saul/pkg/xfab/XKIT/xh018/cadence/v9_0/spectre/v9_0_2/lpmos/models/mos/nesvt.scs
Reading file:  /home/saul/pkg/xfab/XKIT/xh018/cadence/v9_0/spectre/v9_0_2/lpmos/models/mos/nesvti.scs
Reading file:  /home/saul/pkg/xfab/XKIT/xh018/cadence/v9_0/spectre/v9_0_2/lpmos/models/mos/nesvti_6.scs
Reading file:  /home/saul/pkg/xfab/XKIT/xh018/cadence/v9_0/spectre/v9_0_2/lpmos/models/mos/nesvti_m_6.scs
Reading file:  /home/saul/pkg/xfab/XKIT/xh018/cadence/v9_0/spectre/v9_0_2/lpmos/models/mos/pesvt.scs
Reading file:  /home/saul/pkg/xfab/XKIT/xh018/cadence/v9_0/spectre/v9_0_2/lpmos/models/mos/pesvt_5.scs
Reading file:  /home/saul/pkg/xfab/XKIT/xh018/cadence/v9_0/spectre/v9_0_2/lpmos/models/mos/pesvti.scs
Reading file:  /home/saul/pkg/xfab/XKIT/xh018/cadence/v9_0/spectre/v9_0_2/lpmos/models/mos/pesvti_5.scs
Reading file:  /home/saul/pkg/xfab/XKIT/xh018/cadence/v9_0/spectre/v9_0_2/lpmos/models/mos/pesvti_m_5.scs
Reading file:  /home/saul/pkg/xfab/XKIT/xh018/cadence/v9_0/spectre/v9_0_2/lpmos/models/mos/nhvd.scs
Reading file:  /home/saul/pkg/xfab/XKIT/xh018/cadence/v9_0/spectre/v9_0_2/lpmos/models/mos/nhvd_bjt.scs
Reading file:  /home/saul/pkg/xfab/XKIT/xh018/cadence/v9_0/spectre/v9_0_2/lpmos/models/mos/nhhvd.scs
Reading file:  /home/saul/pkg/xfab/XKIT/xh018/cadence/v9_0/spectre/v9_0_2/lpmos/models/mos/nhhvd_bjt.scs
Reading file:  /home/saul/pkg/xfab/XKIT/xh018/cadence/v9_0/spectre/v9_0_2/lpmos/photo.scs
Reading file:  /home/saul/pkg/xfab/XKIT/xh018/cadence/v9_0/spectre/v9_0_2/lpmos/models/photo/tm_pho.scs
Reading file:  /home/saul/pkg/xfab/XKIT/xh018/cadence/v9_0/spectre/v9_0_2/lpmos/models/photo/dphoa.scs
Reading file:  /home/saul/pkg/xfab/XKIT/xh018/cadence/v9_0/spectre/v9_0_2/lpmos/models/photo/dpho.va
Reading link:  /pkg/cadence/installs/SPECTRE231/tools.lnx86/spectre/etc/ahdl/constants.h
Reading file:  /home/saul/cadence/installs/SPECTRE231/tools.lnx86/spectre/etc/ahdl/constants.vams
Reading link:  /pkg/cadence/installs/SPECTRE231/tools.lnx86/spectre/etc/ahdl/discipline.h
Reading file:  /home/saul/cadence/installs/SPECTRE231/tools.lnx86/spectre/etc/ahdl/disciplines.vams
Reading file:  /home/saul/pkg/xfab/XKIT/xh018/cadence/v9_0/spectre/v9_0_2/lpmos/models/photo/dphob.scs
Reading file:  /home/saul/pkg/xfab/XKIT/xh018/cadence/v9_0/spectre/v9_0_2/lpmos/models/photo/dphoc.scs
Reading file:  /home/saul/pkg/xfab/XKIT/xh018/cadence/v9_0/spectre/v9_0_2/lpmos/models/photo/iphoto_uv.va
Reading file:  /home/saul/pkg/xfab/XKIT/xh018/cadence/v9_0/spectre/v9_0_2/lpmos/models/photo/dphoc_cat.scs
Reading file:  /home/saul/pkg/xfab/XKIT/xh018/cadence/v9_0/spectre/v9_0_2/lpmos/models/photo/dphoc0.scs
Reading file:  /home/saul/pkg/xfab/XKIT/xh018/cadence/v9_0/spectre/v9_0_2/lpmos/models/photo/dphoc0_cat.scs
Reading file:  /home/saul/pkg/xfab/XKIT/xh018/cadence/v9_0/spectre/v9_0_2/lpmos/models/photo/dphocfp.scs
Reading file:  /home/saul/pkg/xfab/XKIT/xh018/cadence/v9_0/spectre/v9_0_2/lpmos/models/photo/dphocfp_cat.scs
Reading file:  /home/saul/pkg/xfab/XKIT/xh018/cadence/v9_0/spectre/v9_0_2/lpmos/models/photo/dphod.scs
Reading file:  /home/saul/pkg/xfab/XKIT/xh018/cadence/v9_0/spectre/v9_0_2/lpmos/models/photo/dphod_an1.scs
Reading file:  /home/saul/pkg/xfab/XKIT/xh018/cadence/v9_0/spectre/v9_0_2/lpmos/models/photo/dphod_an2.scs
Reading file:  /home/saul/pkg/xfab/XKIT/xh018/cadence/v9_0/spectre/v9_0_2/lpmos/models/photo/dphod0.scs
Reading file:  /home/saul/pkg/xfab/XKIT/xh018/cadence/v9_0/spectre/v9_0_2/lpmos/models/photo/dphod0_an1.scs
Reading file:  /home/saul/pkg/xfab/XKIT/xh018/cadence/v9_0/spectre/v9_0_2/lpmos/models/photo/dphod0_an2.scs
Reading file:  /home/saul/pkg/xfab/XKIT/xh018/cadence/v9_0/spectre/v9_0_2/lpmos/models/photo/dphodfp.scs
Reading file:  /home/saul/pkg/xfab/XKIT/xh018/cadence/v9_0/spectre/v9_0_2/lpmos/models/photo/dphodfp_an1.scs
Reading file:  /home/saul/pkg/xfab/XKIT/xh018/cadence/v9_0/spectre/v9_0_2/lpmos/models/photo/dphodfp_an2.scs
Reading file:  /home/saul/pkg/xfab/XKIT/xh018/cadence/v9_0/spectre/v9_0_2/lpmos/models/photo/dspada0.scs
Reading file:  /home/saul/pkg/xfab/XKIT/xh018/cadence/v9_0/spectre/v9_0_2/lpmos/models/photo/ispad.va
Reading file:  /home/saul/pkg/xfab/XKIT/xh018/cadence/v9_0/spectre/v9_0_2/lpmos/models/photo/dapb.scs
Reading file:  /home/saul/pkg/xfab/XKIT/xh018/cadence/v9_0/spectre/v9_0_2/lpmos/models/photo/iphoto_apd_trig.va
Reading file:  /home/saul/pkg/xfab/XKIT/xh018/cadence/v9_0/spectre/v9_0_2/lpmos/models/photo/dapb_jun.scs
Reading file:  /home/saul/pkg/xfab/XKIT/xh018/cadence/v9_0/spectre/v9_0_2/lpmos/models/photo/dapb_trig.scs
Reading file:  /home/saul/pkg/xfab/XKIT/xh018/cadence/v9_0/spectre/v9_0_2/lpmos/models/photo/dapb0.scs
Reading file:  /home/saul/pkg/xfab/XKIT/xh018/cadence/v9_0/spectre/v9_0_2/lpmos/models/photo/dapb0_jun.scs
Reading file:  /home/saul/pkg/xfab/XKIT/xh018/cadence/v9_0/spectre/v9_0_2/lpmos/models/photo/dspb.scs
Reading file:  /home/saul/pkg/xfab/XKIT/xh018/cadence/v9_0/spectre/v9_0_2/lpmos/models/photo/ispad_trig.va
Reading file:  /home/saul/pkg/xfab/XKIT/xh018/cadence/v9_0/spectre/v9_0_2/lpmos/models/photo/dspb_jun.scs
Reading file:  /home/saul/pkg/xfab/XKIT/xh018/cadence/v9_0/spectre/v9_0_2/lpmos/models/photo/dspb_trig.scs
Reading file:  /home/saul/pkg/xfab/XKIT/xh018/cadence/v9_0/spectre/v9_0_2/lpmos/models/photo/dspb0.scs
Reading file:  /home/saul/pkg/xfab/XKIT/xh018/cadence/v9_0/spectre/v9_0_2/lpmos/models/photo/dspb0_jun.scs
Reading file:  /home/saul/pkg/xfab/XKIT/xh018/cadence/v9_0/spectre/v9_0_2/lpmos/models/photo/dspbfep.scs
Reading file:  /home/saul/pkg/xfab/XKIT/xh018/cadence/v9_0/spectre/v9_0_2/lpmos/models/photo/dapda.scs
Reading file:  /home/saul/pkg/xfab/XKIT/xh018/cadence/v9_0/spectre/v9_0_2/lpmos/models/photo/iphoto_apd.va
Reading file:  /home/saul/pkg/xfab/XKIT/xh018/cadence/v9_0/spectre/v9_0_2/lpmos/models/photo/dapda_cat.scs
Reading file:  /home/saul/pkg/xfab/XKIT/xh018/cadence/v9_0/spectre/v9_0_2/lpmos/models/photo/dapda0.scs
Reading file:  /home/saul/pkg/xfab/XKIT/xh018/cadence/v9_0/spectre/v9_0_2/lpmos/models/photo/dspada.scs
Reading file:  /home/saul/pkg/xfab/XKIT/xh018/cadence/v9_0/spectre/v9_0_2/lpmos/models/photo/dspada_cat.scs
Reading file:  /home/saul/pkg/xfab/XKIT/xh018/cadence/v9_0/spectre/v9_0_2/lpmos/res.scs
Reading file:  /home/saul/pkg/xfab/XKIT/xh018/cadence/v9_0/spectre/v9_0_2/lpmos/models/res/tm_res.scs
Reading file:  /home/saul/pkg/xfab/XKIT/xh018/cadence/v9_0/spectre/v9_0_2/lpmos/models/res/rdn.scs
Reading file:  /home/saul/pkg/xfab/XKIT/xh018/cadence/v9_0/spectre/v9_0_2/lpmos/models/res/rdn_esd.scs
Reading file:  /home/saul/pkg/xfab/XKIT/xh018/cadence/v9_0/spectre/v9_0_2/lpmos/models/res/rdp.scs
Reading file:  /home/saul/pkg/xfab/XKIT/xh018/cadence/v9_0/spectre/v9_0_2/lpmos/models/res/rdp_io.scs
Reading file:  /home/saul/pkg/xfab/XKIT/xh018/cadence/v9_0/spectre/v9_0_2/lpmos/models/res/rdp_esd.scs
Reading file:  /home/saul/pkg/xfab/XKIT/xh018/cadence/v9_0/spectre/v9_0_2/lpmos/models/res/rnw.scs
Reading file:  /home/saul/pkg/xfab/XKIT/xh018/cadence/v9_0/spectre/v9_0_2/lpmos/models/res/rnw_scr.scs
Reading file:  /home/saul/pkg/xfab/XKIT/xh018/cadence/v9_0/spectre/v9_0_2/lpmos/models/res/rdn3.scs
Reading file:  /home/saul/pkg/xfab/XKIT/xh018/cadence/v9_0/spectre/v9_0_2/lpmos/models/res/rdp3.scs
Reading file:  /home/saul/pkg/xfab/XKIT/xh018/cadence/v9_0/spectre/v9_0_2/lpmos/models/res/rnw3.scs
Reading file:  /home/saul/pkg/xfab/XKIT/xh018/cadence/v9_0/spectre/v9_0_2/lpmos/models/res/rnw3_scr.scs
Reading file:  /home/saul/pkg/xfab/XKIT/xh018/cadence/v9_0/spectre/v9_0_2/lpmos/models/res/rdnwmv.scs
Reading file:  /home/saul/pkg/xfab/XKIT/xh018/cadence/v9_0/spectre/v9_0_2/lpmos/models/res/rnp1.scs
Reading file:  /home/saul/pkg/xfab/XKIT/xh018/cadence/v9_0/spectre/v9_0_2/lpmos/models/res/rnp1_3.scs
Reading file:  /home/saul/pkg/xfab/XKIT/xh018/cadence/v9_0/spectre/v9_0_2/lpmos/models/res/rpp1.scs
Reading file:  /home/saul/pkg/xfab/XKIT/xh018/cadence/v9_0/spectre/v9_0_2/lpmos/models/res/rpp1_3.scs
Reading file:  /home/saul/pkg/xfab/XKIT/xh018/cadence/v9_0/spectre/v9_0_2/lpmos/models/res/rpp1s.scs
Reading file:  /home/saul/pkg/xfab/XKIT/xh018/cadence/v9_0/spectre/v9_0_2/lpmos/models/res/rpp1s_3.scs
Reading file:  /home/saul/pkg/xfab/XKIT/xh018/cadence/v9_0/spectre/v9_0_2/lpmos/models/res/rnp1h.scs
Reading file:  /home/saul/pkg/xfab/XKIT/xh018/cadence/v9_0/spectre/v9_0_2/lpmos/models/res/rnp1h_3.scs
Reading file:  /home/saul/pkg/xfab/XKIT/xh018/cadence/v9_0/spectre/v9_0_2/lpmos/models/res/rpp1k1.scs
Reading file:  /home/saul/pkg/xfab/XKIT/xh018/cadence/v9_0/spectre/v9_0_2/lpmos/models/res/rpp1k1_3.scs
Reading file:  /home/saul/pkg/xfab/XKIT/xh018/cadence/v9_0/spectre/v9_0_2/lpmos/models/res/rctdn.scs
Reading file:  /home/saul/pkg/xfab/XKIT/xh018/cadence/v9_0/spectre/v9_0_2/lpmos/models/res/rctdp.scs
Reading file:  /home/saul/pkg/xfab/XKIT/xh018/cadence/v9_0/spectre/v9_0_2/lpmos/models/res/rctp1.scs
Reading file:  /home/saul/pkg/xfab/XKIT/xh018/cadence/v9_0/spectre/v9_0_2/lpmos/models/res/rsildn.scs
Reading file:  /home/saul/pkg/xfab/XKIT/xh018/cadence/v9_0/spectre/v9_0_2/lpmos/models/res/rsildp.scs
Reading file:  /home/saul/pkg/xfab/XKIT/xh018/cadence/v9_0/spectre/v9_0_2/lpmos/models/res/rsilnp1.scs
Reading file:  /home/saul/pkg/xfab/XKIT/xh018/cadence/v9_0/spectre/v9_0_2/lpmos/models/res/rsilpp1.scs
Reading file:  /home/saul/pkg/xfab/XKIT/xh018/cadence/v9_0/spectre/v9_0_2/lpmos/models/res/rsbdn.scs
Reading file:  /home/saul/pkg/xfab/XKIT/xh018/cadence/v9_0/spectre/v9_0_2/lpmos/models/res/rsbdp.scs
Reading file:  /home/saul/pkg/xfab/XKIT/xh018/cadence/v9_0/spectre/v9_0_2/lpmos/models/res/rsbdn3.scs
Reading file:  /home/saul/pkg/xfab/XKIT/xh018/cadence/v9_0/spectre/v9_0_2/lpmos/models/res/rsbdp3.scs
Reading file:  /home/saul/pkg/xfab/XKIT/xh018/cadence/v9_0/spectre/v9_0_2/lpmos/models/res/rsbnp1.scs
Reading file:  /home/saul/pkg/xfab/XKIT/xh018/cadence/v9_0/spectre/v9_0_2/lpmos/models/res/rsbpp1.scs
Reading file:  /home/saul/pkg/xfab/XKIT/xh018/cadence/v9_0/spectre/v9_0_2/lpmos/models/res/rsbpp1k1.scs
Reading file:  /home/saul/pkg/xfab/XKIT/xh018/cadence/v9_0/spectre/v9_0_2/lpmos/models/res/rm1.scs
Reading file:  /home/saul/pkg/xfab/XKIT/xh018/cadence/v9_0/spectre/v9_0_2/lpmos/models/res/rm2.scs
Reading file:  /home/saul/pkg/xfab/XKIT/xh018/cadence/v9_0/spectre/v9_0_2/lpmos/models/res/rm3.scs
Reading file:  /home/saul/pkg/xfab/XKIT/xh018/cadence/v9_0/spectre/v9_0_2/lpmos/models/res/rm4.scs
Reading file:  /home/saul/pkg/xfab/XKIT/xh018/cadence/v9_0/spectre/v9_0_2/lpmos/models/res/rm5.scs
Reading file:  /home/saul/pkg/xfab/XKIT/xh018/cadence/v9_0/spectre/v9_0_2/lpmos/models/res/rmtp.scs
Reading file:  /home/saul/pkg/xfab/XKIT/xh018/cadence/v9_0/spectre/v9_0_2/lpmos/models/res/rmtpl.scs
Reading file:  /home/saul/pkg/xfab/XKIT/xh018/cadence/v9_0/spectre/v9_0_2/lpmos/models/res/pfuse.scs
Reading file:  /home/saul/pkg/xfab/XKIT/xh018/cadence/v9_0/spectre/v9_0_2/lpmos/models/res/s_res.scs
Time for NDB Parsing: CPU = 226.072 ms, elapsed = 673.058 ms.
Time accumulated: CPU = 292.018 ms, elapsed = 673.061 ms.
Peak resident memory used = 119 Mbytes.

Time for Elaboration: CPU = 11.567 ms, elapsed = 11.533 ms.
Time accumulated: CPU = 303.66 ms, elapsed = 684.668 ms.
Peak resident memory used = 127 Mbytes.


Notice from spectre during hierarchy flattening.
    The value 'psf' specified for the 'checklimitdest' option will no longer be supported in future releases. Use 'spectre -h' to see other recommended values for the 'checklimitdest' option.


Time for EDB Visiting: CPU = 477 us, elapsed = 476.122 us.
Time accumulated: CPU = 304.218 ms, elapsed = 685.225 ms.
Peak resident memory used = 128 Mbytes.


Error found by spectre during initial setup.
    ERROR (CMI-2440): "/home/saul/pkg/xfab/XKIT/xh018/cadence/v9_0/spectre/v9_0_2/lpmos/./models/mos/ne3.scs" 32: M0.m1:  The length, width, or area of the instance does not fit the given lmax-lmin, wmax-wmin, or areamax-areamin range for any model in the `M0.ne3mod' group. The unscaled values for these instance parameters are w=1.000000e-05 and l=1.800000e-07 with scale=1.000000e+00. Ensure that the width and length values are in the bounds set by Lmax=2.000100e-04, Lmin=3.480000e-07, Wmax=2.000100e-04 and Wmin=2.090000e-07. Alternatively, you can choose the nearest model by setting the value of `soft_bin' option to `allmodels'.

Licensing Information:
Lic Summary:
[12:23:35.353258] Cdslmd servers:3000@lic08.ug.kth.se
[12:23:35.353280] Feature usage summary:
[12:23:35.353280] Virtuoso_Multi_mode_Simulation


Aggregate audit (12:23:35 PM, Sun Feb 18, 2024):
Time used: CPU = 306 ms, elapsed = 692 ms, util. = 44.3%.
Time spent in licensing: elapsed = 692 ms, percentage of total = 100%.
Peak memory used = 129 Mbytes.
Simulation started at: 12:23:35 PM, Sun Feb 18, 2024, ended at: 12:23:35 PM, Sun Feb 18, 2024, with elapsed time (wall clock): 692 ms.
spectre completes with 1 error, 0 warnings, and 1 notice.
spectre terminated prematurely due to fatal error.


********* LOG ENDS **************
**                             **
