Spectre (R) Circuit Simulator
Version 23.1.0.305.isr3 64bit -- 13 Nov 2023
Simulating `input.scs' on phoenix at 4:56:54 AM, Sat Feb 17, 2024 (process id: 20003).
H = mpsImport( "spectre" "ipi" "v0.0" ?session "spectre10_15372_9" )
H->sclSetResultDir( "../psf" )
H->sclRun( "all" )
H->sclEcho( "@-@" )
sclCkt0xf406000 = H->sclGetCircuit(  "" )
H->sclQuit(  )
