
Spectre (R) Circuit Simulator
Version 23.1.0.305.isr3 64bit -- 13 Nov 2023
Copyright (C) 1989-2023 Cadence Design Systems, Inc. All rights reserved worldwide. Cadence and Spectre are registered trademarks of Cadence Design Systems, Inc. All others are the property of their respective holders.

Includes RSA BSAFE(R) Cryptographic or Security Protocol Software from RSA Security, Inc.

User: saul   Host: phoenix   HostID: A0F02   PID: 27438
Memory  available: 13.6672 GB  physical: 16.6560 GB
Linux   : CentOS Linux release 7 (Core)
CPU Type: 11th Gen Intel(R) Core(TM) i7-11700K @ 3.60GHz
All processors running at 3600.0 MHz
        Socket: Processors
        0:       0,  1,  2,  3,  4,  5
        
System load averages (1min, 5min, 15min) : 14.2 %, 14.3 %, 11.3 %
HPC is enabled


Simulating `input.scs' on phoenix at 11:06:15 AM, Sun Feb 18, 2024 (process id: 27438).
Current working directory: /home/saul/projects/XH018_mixed_ji3/test_mix/virtuoso/Sim/CHARACTERIZATION/DC_BIAS_NMOS/adexl/results/data/Interactive.0/10/CHARACTERIZATION:DC_BIAS_NMOS:VGS/netlist
Command line:
    /pkg/cadence/installs/SPECTRE231/tools/bin/spectre -64 input.scs  \
        +escchars +log ../psf/spectre.out -format psfxl -raw ../psf  \
        ++aps +mt +lqtimeout 900 -maxw 5 -maxn 5 -env ade -ahdllibdir  \
        /home/saul/projects/XH018_mixed_ji3/test_mix/virtuoso/Sim/CHARACTERIZATION/DC_BIAS_NMOS/adexl/results/data/Interactive.0/sharedData/Job183/ahdl/input.ahdlSimDB  \
        +logstatus

Licensing Information:
[11:06:16.512377] Configured Lic search path (22.01-s002): 3000@lic08.ug.kth.se

Licensing Information:
[11:06:16.153811] Periodic Lic check successful

Loading /pkg/cadence/installs/SPECTRE231/tools.lnx86/cmi/lib/64bit/5.0/libinfineon_sh.so ...
Loading /pkg/cadence/installs/SPECTRE231/tools.lnx86/cmi/lib/64bit/5.0/libphilips_I_sh.so ...
Loading /pkg/cadence/installs/SPECTRE231/tools.lnx86/cmi/lib/64bit/5.0/libphilips_sh.so ...
Loading /pkg/cadence/installs/SPECTRE231/tools.lnx86/cmi/lib/64bit/5.0/libsparam_sh.so ...
Loading /pkg/cadence/installs/SPECTRE231/tools.lnx86/cmi/lib/64bit/5.0/libstmodels_sh.so ...
Reading file:  /home/saul/projects/XH018_mixed_ji3/test_mix/virtuoso/Sim/CHARACTERIZATION/DC_BIAS_NMOS/adexl/results/data/Interactive.0/10/CHARACTERIZATION:DC_BIAS_NMOS:VGS/netlist/input.scs
Reading link:  /pkg/cadence
Reading file:  /home/saul/cadence/installs/SPECTRE231/tools.lnx86/spectre/etc/configs/spectre.cfg

Error found by spectre during circuit read-in.
    ERROR (SFE-868): "input.scs" 10: Cannot open the input file '/pkg/xfab/XKIT/xh018/cadence/v8_0/spectre/v8_0_1/lpmos/config.scs' because either the file name or the directory specified is invalid. Ensure that the specified file exists and the path to the file is valid. Alternatively, use the -I <path> command-line option to specify the path to the file and rerun the simulation.
    ERROR (SFE-868): "input.scs" 11: Cannot open the input file '/pkg/xfab/XKIT/xh018/cadence/v8_0/spectre/v8_0_1/lpmos/param.scs' because either the file name or the directory specified is invalid. Ensure that the specified file exists and the path to the file is valid. Alternatively, use the -I <path> command-line option to specify the path to the file and rerun the simulation.
    ERROR (SFE-868): "input.scs" 12: Cannot open the input file '/pkg/xfab/XKIT/xh018/cadence/v8_0/spectre/v8_0_1/lpmos/bip.scs' because either the file name or the directory specified is invalid. Ensure that the specified file exists and the path to the file is valid. Alternatively, use the -I <path> command-line option to specify the path to the file and rerun the simulation.
    ERROR (SFE-868): "input.scs" 13: Cannot open the input file '/pkg/xfab/XKIT/xh018/cadence/v8_0/spectre/v8_0_1/lpmos/cap.scs' because either the file name or the directory specified is invalid. Ensure that the specified file exists and the path to the file is valid. Alternatively, use the -I <path> command-line option to specify the path to the file and rerun the simulation.
    ERROR (SFE-868): "input.scs" 14: Cannot open the input file '/pkg/xfab/XKIT/xh018/cadence/v8_0/spectre/v8_0_1/lpmos/dio.scs' because either the file name or the directory specified is invalid. Ensure that the specified file exists and the path to the file is valid. Alternatively, use the -I <path> command-line option to specify the path to the file and rerun the simulation.
    ERROR (SFE-868): "input.scs" 15: Cannot open the input file '/pkg/xfab/XKIT/xh018/cadence/v8_0/spectre/v8_0_1/lpmos/mos.scs' because either the file name or the directory specified is invalid. Ensure that the specified file exists and the path to the file is valid. Alternatively, use the -I <path> command-line option to specify the path to the file and rerun the simulation.
    ERROR (SFE-868): "input.scs" 16: Cannot open the input file '/pkg/xfab/XKIT/xh018/cadence/v8_0/spectre/v8_0_1/lpmos/photo.scs' because either the file name or the directory specified is invalid. Ensure that the specified file exists and the path to the file is valid. Alternatively, use the -I <path> command-line option to specify the path to the file and rerun the simulation.
    ERROR (SFE-868): "input.scs" 17: Cannot open the input file '/pkg/xfab/XKIT/xh018/cadence/v8_0/spectre/v8_0_1/lpmos/res.scs' because either the file name or the directory specified is invalid. Ensure that the specified file exists and the path to the file is valid. Alternatively, use the -I <path> command-line option to specify the path to the file and rerun the simulation.

Time for NDB Parsing: CPU = 73.588 ms, elapsed = 719.853 ms.
Time accumulated: CPU = 129.135 ms, elapsed = 719.855 ms.
Peak resident memory used = 101 Mbytes.

Licensing Information:
Lic Summary:
[11:06:16.194240] Cdslmd servers:3000@lic08.ug.kth.se
[11:06:16.194248] Feature usage summary:
[11:06:16.194248] Virtuoso_Multi_mode_Simulation


Aggregate audit (11:06:16 AM, Sun Feb 18, 2024):
Time used: CPU = 130 ms, elapsed = 721 ms, util. = 18.1%.
Time spent in licensing: elapsed = 721 ms, percentage of total = 100%.
Peak memory used = 102 Mbytes.
Simulation started at: 11:06:15 AM, Sun Feb 18, 2024, ended at: 11:06:16 AM, Sun Feb 18, 2024, with elapsed time (wall clock): 721 ms.
spectre completes with 8 errors, 0 warnings, and 0 notices.
spectre terminated prematurely due to fatal error.
