Spectre (R) Circuit Simulator
Version 23.1.0.305.isr3 64bit -- 13 Nov 2023
Simulating `input.scs' on phoenix at 1:41:48 PM, Sun Feb 18, 2024 (process id: 17106).
H = mpsImport( "spectre" "ipi" "v0.0" ?session "spectre14_14765_10" )
H->sclSetResultDir( "../psf" )
H->sclRun( "all" )
H->sclEcho( "@-@" )
